
     RDKit          3D

 43 46  0  0  0  0  0  0  0  0999 V2000
   22.9770   34.3952   51.4575 C   0  0  0  0  0  0  0  0  0  0  0  0
   23.5292   34.0576   52.7955 C   0  0  0  0  0  0  0  0  0  0  0  0
   22.7697   33.5828   53.8477 C   0  0  0  0  0  0  0  0  0  0  0  0
   23.6354   33.3949   54.8939 C   0  0  0  0  0  0  0  0  0  0  0  0
   23.3327   32.9065   56.2348 C   0  0  0  0  0  0  0  0  0  0  0  0
   24.2819   32.7573   57.2068 C   0  0  0  0  0  0  0  0  0  0  0  0
   23.9352   32.2913   58.4550 C   0  0  0  0  0  0  0  0  0  0  0  0
   22.6048   31.9720   58.7201 C   0  0  0  0  0  0  0  0  0  0  0  0
   21.6377   32.1134   57.7620 C   0  0  0  0  0  0  0  0  0  0  0  0
   20.2187   31.7921   57.9802 C   0  0  0  0  0  0  0  0  0  0  0  0
   19.8461   30.4559   57.6477 N   0  0  0  0  0  0  0  0  0  0  0  0
   19.4304   30.0814   56.4514 N   0  0  0  0  0  0  0  0  0  0  0  0
   19.0793   28.8107   56.1416 C   0  0  0  0  0  0  0  0  0  0  0  0
   18.6260   28.4800   54.7803 C   0  0  0  0  0  0  0  0  0  0  0  0
   18.5672   29.4838   53.8357 C   0  0  0  0  0  0  0  0  0  0  0  0
   18.1549   29.2352   52.5591 C   0  0  0  0  0  0  0  0  0  0  0  0
   18.1069   30.2543   51.6420 F   0  0  0  0  0  0  0  0  0  0  0  0
   17.7840   27.9573   52.1841 C   0  0  0  0  0  0  0  0  0  0  0  0
   17.8467   26.9665   53.1325 C   0  0  0  0  0  0  0  0  0  0  0  0
   17.4837   25.7052   52.7732 F   0  0  0  0  0  0  0  0  0  0  0  0
   18.2652   27.2157   54.4308 C   0  0  0  0  0  0  0  0  0  0  0  0
   19.1375   27.8211   57.0736 C   0  0  0  0  0  0  0  0  0  0  0  0
   19.5761   28.1894   58.3555 C   0  0  0  0  0  0  0  0  0  0  0  0
   19.9145   29.5012   58.5904 C   0  0  0  0  0  0  0  0  0  0  0  0
   20.3032   29.7527   59.7826 O   0  0  0  0  0  0  0  0  0  0  0  0
   22.0220   32.5819   56.5266 C   0  0  0  0  0  0  0  0  0  0  0  0
   24.8273   33.7379   54.4813 O   0  0  0  0  0  0  0  0  0  0  0  0
   24.7855   34.1328   53.2426 N   0  0  0  0  0  0  0  0  0  0  0  0
   22.6227   33.4663   50.9449 H   0  0  0  0  0  0  0  0  0  0  0  0
   23.7497   34.8551   50.8156 H   0  0  0  0  0  0  0  0  0  0  0  0
   22.1172   35.0747   51.5108 H   0  0  0  0  0  0  0  0  0  0  0  0
   21.7001   33.3959   53.8454 H   0  0  0  0  0  0  0  0  0  0  0  0
   25.3000   33.0186   56.9520 H   0  0  0  0  0  0  0  0  0  0  0  0
   24.6752   32.1673   59.2368 H   0  0  0  0  0  0  0  0  0  0  0  0
   22.3182   31.6081   59.6894 H   0  0  0  0  0  0  0  0  0  0  0  0
   19.9949   32.0561   59.0484 H   0  0  0  0  0  0  0  0  0  0  0  0
   19.6267   32.5564   57.3937 H   0  0  0  0  0  0  0  0  0  0  0  0
   18.8656   30.5052   54.1426 H   0  0  0  0  0  0  0  0  0  0  0  0
   17.4568   27.7758   51.1597 H   0  0  0  0  0  0  0  0  0  0  0  0
   18.2883   26.3683   55.1340 H   0  0  0  0  0  0  0  0  0  0  0  0
   18.8762   26.7729   56.9178 H   0  0  0  0  0  0  0  0  0  0  0  0
   19.6323   27.4287   59.1126 H   0  0  0  0  0  0  0  0  0  0  0  0
   21.2712   32.7014   55.7530 H   0  0  0  0  0  0  0  0  0  0  0  0
  1  2  1  0
  2  3  1  0
  3  4  2  0
  4  5  1  0
  5  6  2  0
  6  7  1  0
  7  8  2  0
  8  9  1  0
  9 10  1  0
 10 11  1  0
 11 12  1  0
 12 13  2  0
 13 14  1  0
 14 15  2  0
 15 16  1  0
 16 17  1  0
 16 18  2  0
 18 19  1  0
 19 20  1  0
 19 21  2  0
 13 22  1  0
 22 23  2  0
 23 24  1  0
 24 25  2  0
  9 26  2  0
  4 27  1  0
 27 28  1  0
 28  2  2  0
 26  5  1  0
 24 11  1  0
 21 14  1  0
  1 29  1  0
  1 30  1  0
  1 31  1  0
  3 32  1  0
  6 33  1  0
  7 34  1  0
  8 35  1  0
 10 36  1  0
 10 37  1  0
 15 38  1  0
 18 39  1  0
 21 40  1  0
 22 41  1  0
 23 42  1  0
 26 43  1  0
M  END
$$$$
