
     RDKit          3D

 46 49  0  0  0  0  0  0  0  0999 V2000
   27.3789   27.7201   59.2758 C   0  0  0  0  0  0  0  0  0  0  0  0
   26.4643   28.6959   58.6179 C   0  0  0  0  0  0  0  0  0  0  0  0
   26.0913   28.5329   57.2995 C   0  0  0  0  0  0  0  0  0  0  0  0
   25.2338   29.4593   56.7040 C   0  0  0  0  0  0  0  0  0  0  0  0
   24.7439   30.5404   57.3970 C   0  0  0  0  0  0  0  0  0  0  0  0
   23.8123   31.5371   56.7318 C   0  0  0  0  0  0  0  0  0  0  0  0
   22.4249   31.2728   57.1334 C   0  0  0  0  0  0  0  0  0  0  0  0
   21.6893   32.1764   57.7334 C   0  0  0  0  0  0  0  0  0  0  0  0
   20.2937   31.8353   58.1094 C   0  0  0  0  0  0  0  0  0  0  0  0
   19.9343   30.4989   57.7429 N   0  0  0  0  0  0  0  0  0  0  0  0
   19.4058   30.2609   56.5647 N   0  0  0  0  0  0  0  0  0  0  0  0
   19.0397   29.0399   56.1393 C   0  0  0  0  0  0  0  0  0  0  0  0
   18.4622   28.8574   54.8230 C   0  0  0  0  0  0  0  0  0  0  0  0
   18.0704   27.6568   54.3284 C   0  0  0  0  0  0  0  0  0  0  0  0
   17.5156   27.4758   53.0659 C   0  0  0  0  0  0  0  0  0  0  0  0
   17.1330   26.2679   52.5959 F   0  0  0  0  0  0  0  0  0  0  0  0
   17.3484   28.5747   52.2587 C   0  0  0  0  0  0  0  0  0  0  0  0
   17.7294   29.8007   52.7179 C   0  0  0  0  0  0  0  0  0  0  0  0
   17.5574   30.8790   51.9070 F   0  0  0  0  0  0  0  0  0  0  0  0
   18.2760   29.9563   53.9701 C   0  0  0  0  0  0  0  0  0  0  0  0
   19.2344   27.9895   56.9942 C   0  0  0  0  0  0  0  0  0  0  0  0
   19.7836   28.2167   58.2261 C   0  0  0  0  0  0  0  0  0  0  0  0
   20.1352   29.4901   58.5974 C   0  0  0  0  0  0  0  0  0  0  0  0
   20.6515   29.7038   59.7556 O   0  0  0  0  0  0  0  0  0  0  0  0
   22.1881   33.5100   58.0485 C   0  0  0  0  0  0  0  0  0  0  0  0
   23.4431   33.7457   57.6840 C   0  0  0  0  0  0  0  0  0  0  0  0
   24.2168   32.8186   57.0614 O   0  0  0  0  0  0  0  0  0  0  0  0
   25.1254   30.6714   58.6784 N   0  0  0  0  0  0  0  0  0  0  0  0
   25.9523   29.7926   59.2800 C   0  0  0  0  0  0  0  0  0  0  0  0
   26.8290   26.9096   59.7889 H   0  0  0  0  0  0  0  0  0  0  0  0
   28.0388   28.1879   60.0143 H   0  0  0  0  0  0  0  0  0  0  0  0
   28.0349   27.2858   58.4874 H   0  0  0  0  0  0  0  0  0  0  0  0
   26.4773   27.6804   56.7523 H   0  0  0  0  0  0  0  0  0  0  0  0
   24.9444   29.3304   55.6767 H   0  0  0  0  0  0  0  0  0  0  0  0
   23.9614   31.3444   55.6306 H   0  0  0  0  0  0  0  0  0  0  0  0
   21.9965   30.3034   56.9280 H   0  0  0  0  0  0  0  0  0  0  0  0
   20.2190   31.9656   59.2105 H   0  0  0  0  0  0  0  0  0  0  0  0
   19.6401   32.5897   57.5840 H   0  0  0  0  0  0  0  0  0  0  0  0
   18.1743   26.7495   54.9130 H   0  0  0  0  0  0  0  0  0  0  0  0
   16.9191   28.5010   51.2571 H   0  0  0  0  0  0  0  0  0  0  0  0
   18.5811   30.9263   54.3424 H   0  0  0  0  0  0  0  0  0  0  0  0
   18.9627   26.9556   56.7259 H   0  0  0  0  0  0  0  0  0  0  0  0
   19.9464   27.3935   58.9207 H   0  0  0  0  0  0  0  0  0  0  0  0
   21.5744   34.2434   58.5415 H   0  0  0  0  0  0  0  0  0  0  0  0
   23.8287   34.7660   57.9236 H   0  0  0  0  0  0  0  0  0  0  0  0
   26.2447   29.9247   60.3215 H   0  0  0  0  0  0  0  0  0  0  0  0
  1  2  1  0
  2  3  2  0
  3  4  1  0
  4  5  2  0
  5  6  1  0
  6  7  1  0
  7  8  2  0
  8  9  1  0
  9 10  1  0
 10 11  1  0
 11 12  2  0
 12 13  1  0
 13 14  2  0
 14 15  1  0
 15 16  1  0
 15 17  2  0
 17 18  1  0
 18 19  1  0
 18 20  2  0
 12 21  1  0
 21 22  2  0
 22 23  1  0
 23 24  2  0
  8 25  1  0
 25 26  2  0
 26 27  1  0
  5 28  1  0
 28 29  2  0
 29  2  1  0
 27  6  1  0
 23 10  1  0
 20 13  1  0
  1 30  1  0
  1 31  1  0
  1 32  1  0
  3 33  1  0
  4 34  1  0
  6 35  1  0
  7 36  1  0
  9 37  1  0
  9 38  1  0
 14 39  1  0
 17 40  1  0
 20 41  1  0
 21 42  1  0
 22 43  1  0
 25 44  1  0
 26 45  1  0
 29 46  1  0
M  END
$$$$
