
     RDKit          3D

 34 36  0  0  0  0  0  0  0  0999 V2000
   20.7933   29.4793   59.7547 O   0  0  0  0  0  0  0  0  0  0  0  0
   20.2326   29.3237   58.6358 C   0  0  0  0  0  0  0  0  0  0  0  0
   19.9727   28.0419   58.2154 C   0  0  0  0  0  0  0  0  0  0  0  0
   19.3518   27.8923   56.9755 C   0  0  0  0  0  0  0  0  0  0  0  0
   19.0165   28.9787   56.2114 C   0  0  0  0  0  0  0  0  0  0  0  0
   18.3624   28.8602   54.9022 C   0  0  0  0  0  0  0  0  0  0  0  0
   18.0468   27.6617   54.3626 C   0  0  0  0  0  0  0  0  0  0  0  0
   17.4222   27.5472   53.1126 C   0  0  0  0  0  0  0  0  0  0  0  0
   17.1349   26.3147   52.6329 F   0  0  0  0  0  0  0  0  0  0  0  0
   17.1246   28.7014   52.4191 C   0  0  0  0  0  0  0  0  0  0  0  0
   17.4404   29.9245   52.9569 C   0  0  0  0  0  0  0  0  0  0  0  0
   17.1264   31.0496   52.2328 F   0  0  0  0  0  0  0  0  0  0  0  0
   18.0531   30.0235   54.1843 C   0  0  0  0  0  0  0  0  0  0  0  0
   19.3142   30.1900   56.7136 N   0  0  0  0  0  0  0  0  0  0  0  0
   19.8975   30.3695   57.8753 N   0  0  0  0  0  0  0  0  0  0  0  0
   20.2074   31.7058   58.3856 C   0  0  0  0  0  0  0  0  0  0  0  0
   21.5511   32.1722   57.9592 C   0  0  0  0  0  0  0  0  0  0  0  0
   22.7012   31.9840   58.6936 C   0  0  0  0  0  0  0  0  0  0  0  0
   23.9293   32.4419   58.2404 C   0  0  0  0  0  0  0  0  0  0  0  0
   24.0401   33.1065   57.0289 C   0  0  0  0  0  0  0  0  0  0  0  0
   22.9002   33.3018   56.2846 C   0  0  0  0  0  0  0  0  0  0  0  0
   21.6917   32.8396   56.7525 C   0  0  0  0  0  0  0  0  0  0  0  0
   20.2265   27.1705   58.7976 H   0  0  0  0  0  0  0  0  0  0  0  0
   19.1353   26.8792   56.6208 H   0  0  0  0  0  0  0  0  0  0  0  0
   18.2579   26.7329   54.8635 H   0  0  0  0  0  0  0  0  0  0  0  0
   16.6452   28.5944   51.4611 H   0  0  0  0  0  0  0  0  0  0  0  0
   18.3010   30.9868   54.6064 H   0  0  0  0  0  0  0  0  0  0  0  0
   19.3990   32.4050   58.1066 H   0  0  0  0  0  0  0  0  0  0  0  0
   20.2444   31.6616   59.5133 H   0  0  0  0  0  0  0  0  0  0  0  0
   22.6612   31.4737   59.6422 H   0  0  0  0  0  0  0  0  0  0  0  0
   24.8200   32.2855   58.8290 H   0  0  0  0  0  0  0  0  0  0  0  0
   25.0093   33.4650   56.6766 H   0  0  0  0  0  0  0  0  0  0  0  0
   23.0026   33.8261   55.3341 H   0  0  0  0  0  0  0  0  0  0  0  0
   20.8266   33.0293   56.1097 H   0  0  0  0  0  0  0  0  0  0  0  0
  1  2  2  0
  2  3  1  0
  3  4  2  0
  4  5  1  0
  5  6  1  0
  6  7  2  0
  7  8  1  0
  8  9  1  0
  8 10  2  0
 10 11  1  0
 11 12  1  0
 11 13  2  0
  5 14  2  0
 14 15  1  0
 15 16  1  0
 16 17  1  0
 17 18  2  0
 18 19  1  0
 19 20  2  0
 20 21  1  0
 21 22  2  0
 15  2  1  0
 22 17  1  0
 13  6  1  0
  3 23  1  0
  4 24  1  0
  7 25  1  0
 10 26  1  0
 13 27  1  0
 16 28  1  0
 16 29  1  0
 18 30  1  0
 19 31  1  0
 20 32  1  0
 21 33  1  0
 22 34  1  0
M  END
$$$$
