
     RDKit          3D

 40 43  0  0  0  0  0  0  0  0999 V2000
   20.6348   29.7994   59.5202 O   0  0  0  0  0  0  0  0  0  0  0  0
   20.1532   29.5115   58.3754 C   0  0  0  0  0  0  0  0  0  0  0  0
   19.9119   28.1722   58.1538 C   0  0  0  0  0  0  0  0  0  0  0  0
   19.3810   27.8026   56.9072 C   0  0  0  0  0  0  0  0  0  0  0  0
   19.1385   28.7955   55.9955 C   0  0  0  0  0  0  0  0  0  0  0  0
   18.5864   28.4762   54.6799 C   0  0  0  0  0  0  0  0  0  0  0  0
   18.2974   27.1902   54.3209 C   0  0  0  0  0  0  0  0  0  0  0  0
   17.7716   26.9317   53.0547 C   0  0  0  0  0  0  0  0  0  0  0  0
   17.4845   25.6475   52.7001 F   0  0  0  0  0  0  0  0  0  0  0  0
   17.5250   27.9152   52.1359 C   0  0  0  0  0  0  0  0  0  0  0  0
   17.8207   29.2108   52.5092 C   0  0  0  0  0  0  0  0  0  0  0  0
   17.5755   30.1949   51.5936 F   0  0  0  0  0  0  0  0  0  0  0  0
   18.3393   29.4820   53.7532 C   0  0  0  0  0  0  0  0  0  0  0  0
   19.4132   30.0935   56.3143 N   0  0  0  0  0  0  0  0  0  0  0  0
   19.9098   30.4546   57.4759 N   0  0  0  0  0  0  0  0  0  0  0  0
   20.1841   31.8564   57.7632 C   0  0  0  0  0  0  0  0  0  0  0  0
   21.5633   32.2425   57.3730 C   0  0  0  0  0  0  0  0  0  0  0  0
   21.7717   32.7177   56.0904 C   0  0  0  0  0  0  0  0  0  0  0  0
   23.0400   33.0919   55.6754 C   0  0  0  0  0  0  0  0  0  0  0  0
   24.1007   32.9888   56.5496 C   0  0  0  0  0  0  0  0  0  0  0  0
   23.9326   32.5198   57.8358 C   0  0  0  0  0  0  0  0  0  0  0  0
   25.0455   32.4046   58.7738 C   0  0  0  0  0  0  0  0  0  0  0  0
   26.3199   32.7323   58.4987 N   0  0  0  0  0  0  0  0  0  0  0  0
   27.0842   32.4961   59.6038 C   0  0  0  0  0  0  0  0  0  0  0  0
   26.2009   32.0128   60.5466 C   0  0  0  0  0  0  0  0  0  0  0  0
   25.0139   31.9833   59.9935 O   0  0  0  0  0  0  0  0  0  0  0  0
   22.6494   32.1606   58.1989 C   0  0  0  0  0  0  0  0  0  0  0  0
   20.0988   27.3915   58.8612 H   0  0  0  0  0  0  0  0  0  0  0  0
   19.1850   26.7581   56.7145 H   0  0  0  0  0  0  0  0  0  0  0  0
   18.4482   26.3406   54.9560 H   0  0  0  0  0  0  0  0  0  0  0  0
   17.1118   27.6622   51.1556 H   0  0  0  0  0  0  0  0  0  0  0  0
   18.5683   30.5053   54.0363 H   0  0  0  0  0  0  0  0  0  0  0  0
   20.0220   31.9789   58.8609 H   0  0  0  0  0  0  0  0  0  0  0  0
   19.4467   32.4550   57.2189 H   0  0  0  0  0  0  0  0  0  0  0  0
   20.9618   32.8130   55.3739 H   0  0  0  0  0  0  0  0  0  0  0  0
   23.1641   33.4625   54.6543 H   0  0  0  0  0  0  0  0  0  0  0  0
   25.0763   33.2895   56.1928 H   0  0  0  0  0  0  0  0  0  0  0  0
   28.1558   32.6571   59.7088 H   0  0  0  0  0  0  0  0  0  0  0  0
   26.5020   31.7280   61.5449 H   0  0  0  0  0  0  0  0  0  0  0  0
   22.5108   31.7872   59.2204 H   0  0  0  0  0  0  0  0  0  0  0  0
  1  2  2  0
  2  3  1  0
  3  4  2  0
  4  5  1  0
  5  6  1  0
  6  7  2  0
  7  8  1  0
  8  9  1  0
  8 10  2  0
 10 11  1  0
 11 12  1  0
 11 13  2  0
  5 14  2  0
 14 15  1  0
 15 16  1  0
 16 17  1  0
 17 18  2  0
 18 19  1  0
 19 20  2  0
 20 21  1  0
 21 22  1  0
 22 23  2  0
 23 24  1  0
 24 25  2  0
 25 26  1  0
 21 27  2  0
 15  2  1  0
 27 17  1  0
 13  6  1  0
 26 22  1  0
  3 28  1  0
  4 29  1  0
  7 30  1  0
 10 31  1  0
 13 32  1  0
 16 33  1  0
 16 34  1  0
 18 35  1  0
 19 36  1  0
 20 37  1  0
 24 38  1  0
 25 39  1  0
 27 40  1  0
M  END
$$$$
