
     RDKit          3D

 43 46  0  0  0  0  0  0  0  0999 V2000
   24.9792   35.1119   51.1209 C   0  0  0  0  0  0  0  0  0  0  0  0
   24.4939   34.2388   52.2170 C   0  0  0  0  0  0  0  0  0  0  0  0
   24.0271   32.9710   52.2501 C   0  0  0  0  0  0  0  0  0  0  0  0
   23.6790   32.5079   53.4308 N   0  0  0  0  0  0  0  0  0  0  0  0
   23.7166   33.0317   54.4388 C   0  0  0  0  0  0  0  0  0  0  0  0
   23.4137   32.7963   55.8671 C   0  0  0  0  0  0  0  0  0  0  0  0
   23.5976   33.7142   56.8500 C   0  0  0  0  0  0  0  0  0  0  0  0
   23.2946   33.4366   58.1803 C   0  0  0  0  0  0  0  0  0  0  0  0
   22.7868   32.1708   58.4975 C   0  0  0  0  0  0  0  0  0  0  0  0
   22.5974   31.2373   57.5130 C   0  0  0  0  0  0  0  0  0  0  0  0
   22.0603   29.8983   57.8245 C   0  0  0  0  0  0  0  0  0  0  0  0
   20.5965   29.8609   57.6743 N   0  0  0  0  0  0  0  0  0  0  0  0
   20.0881   29.5571   56.5004 N   0  0  0  0  0  0  0  0  0  0  0  0
   18.7379   29.5117   56.3017 C   0  0  0  0  0  0  0  0  0  0  0  0
   18.2227   29.1698   54.9827 C   0  0  0  0  0  0  0  0  0  0  0  0
   16.8817   29.1120   54.7331 C   0  0  0  0  0  0  0  0  0  0  0  0
   16.4540   28.7748   53.4357 C   0  0  0  0  0  0  0  0  0  0  0  0
   15.1322   28.7192   53.1941 F   0  0  0  0  0  0  0  0  0  0  0  0
   17.3627   28.5083   52.4372 C   0  0  0  0  0  0  0  0  0  0  0  0
   18.7010   28.5665   52.6882 C   0  0  0  0  0  0  0  0  0  0  0  0
   19.6184   28.3143   51.7436 F   0  0  0  0  0  0  0  0  0  0  0  0
   19.1128   28.8966   53.9583 C   0  0  0  0  0  0  0  0  0  0  0  0
   17.9081   29.7914   57.3592 C   0  0  0  0  0  0  0  0  0  0  0  0
   18.4351   30.1162   58.6145 C   0  0  0  0  0  0  0  0  0  0  0  0
   19.8052   30.1390   58.7273 C   0  0  0  0  0  0  0  0  0  0  0  0
   20.3286   30.4244   59.8335 O   0  0  0  0  0  0  0  0  0  0  0  0
   22.9120   31.5654   56.2279 C   0  0  0  0  0  0  0  0  0  0  0  0
   24.4058   34.7197   53.9493 S   0  0  0  0  0  0  0  0  0  0  0  0
   26.1050   35.0832   51.1477 H   0  0  0  0  0  0  0  0  0  0  0  0
   24.6198   34.6765   50.1909 H   0  0  0  0  0  0  0  0  0  0  0  0
   24.6893   36.1730   51.2747 H   0  0  0  0  0  0  0  0  0  0  0  0
   23.9423   32.3577   51.3363 H   0  0  0  0  0  0  0  0  0  0  0  0
   23.9965   34.7000   56.5786 H   0  0  0  0  0  0  0  0  0  0  0  0
   23.4390   34.1638   58.9660 H   0  0  0  0  0  0  0  0  0  0  0  0
   22.5584   31.9633   59.5224 H   0  0  0  0  0  0  0  0  0  0  0  0
   22.2467   29.6476   58.9009 H   0  0  0  0  0  0  0  0  0  0  0  0
   22.5441   29.1167   57.2067 H   0  0  0  0  0  0  0  0  0  0  0  0
   16.1324   29.3127   55.4827 H   0  0  0  0  0  0  0  0  0  0  0  0
   17.0617   28.2441   51.4221 H   0  0  0  0  0  0  0  0  0  0  0  0
   20.1760   28.9586   54.2181 H   0  0  0  0  0  0  0  0  0  0  0  0
   16.8355   29.7622   57.2277 H   0  0  0  0  0  0  0  0  0  0  0  0
   17.7553   30.3323   59.4310 H   0  0  0  0  0  0  0  0  0  0  0  0
   22.7650   30.8367   55.4536 H   0  0  0  0  0  0  0  0  0  0  0  0
  1  2  1  0
  2  3  2  0
  3  4  1  0
  4  5  2  0
  5  6  1  0
  6  7  2  0
  7  8  1  0
  8  9  2  0
  9 10  1  0
 10 11  1  0
 11 12  1  0
 12 13  1  0
 13 14  2  0
 14 15  1  0
 15 16  2  0
 16 17  1  0
 17 18  1  0
 17 19  2  0
 19 20  1  0
 20 21  1  0
 20 22  2  0
 14 23  1  0
 23 24  2  0
 24 25  1  0
 25 26  2  0
 10 27  2  0
  5 28  1  0
 28  2  1  0
 27  6  1  0
 25 12  1  0
 22 15  1  0
  1 29  1  0
  1 30  1  0
  1 31  1  0
  3 32  1  0
  7 33  1  0
  8 34  1  0
  9 35  1  0
 11 36  1  0
 11 37  1  0
 16 38  1  0
 19 39  1  0
 22 40  1  0
 23 41  1  0
 24 42  1  0
 27 43  1  0
M  END
$$$$
