
     RDKit          3D

 42 45  0  0  0  0  0  0  0  0999 V2000
   20.5794   29.9430   59.7730 O   0  0  0  0  0  0  0  0  0  0  0  0
   20.1159   29.5945   58.6554 C   0  0  0  0  0  0  0  0  0  0  0  0
   19.7999   28.2764   58.3727 C   0  0  0  0  0  0  0  0  0  0  0  0
   19.2934   27.9912   57.1097 C   0  0  0  0  0  0  0  0  0  0  0  0
   19.1085   28.9753   56.1666 C   0  0  0  0  0  0  0  0  0  0  0  0
   18.5799   28.7161   54.8318 C   0  0  0  0  0  0  0  0  0  0  0  0
   18.4209   29.7683   53.9292 C   0  0  0  0  0  0  0  0  0  0  0  0
   17.9272   29.5692   52.6635 C   0  0  0  0  0  0  0  0  0  0  0  0
   17.7659   30.5765   51.7747 F   0  0  0  0  0  0  0  0  0  0  0  0
   17.5657   28.3039   52.2330 C   0  0  0  0  0  0  0  0  0  0  0  0
   17.7130   27.2427   53.1073 C   0  0  0  0  0  0  0  0  0  0  0  0
   17.3684   25.9760   52.7236 F   0  0  0  0  0  0  0  0  0  0  0  0
   18.2117   27.4794   54.3700 C   0  0  0  0  0  0  0  0  0  0  0  0
   19.4453   30.2291   56.5348 N   0  0  0  0  0  0  0  0  0  0  0  0
   19.9300   30.5468   57.7234 N   0  0  0  0  0  0  0  0  0  0  0  0
   20.2707   31.9339   58.0373 C   0  0  0  0  0  0  0  0  0  0  0  0
   21.6675   32.2711   57.6899 C   0  0  0  0  0  0  0  0  0  0  0  0
   21.9372   32.7368   56.4157 C   0  0  0  0  0  0  0  0  0  0  0  0
   23.2005   33.0743   56.0077 C   0  0  0  0  0  0  0  0  0  0  0  0
   24.2532   32.9416   56.9162 C   0  0  0  0  0  0  0  0  0  0  0  0
   24.0417   32.4856   58.1891 C   0  0  0  0  0  0  0  0  0  0  0  0
   25.1191   32.3403   59.1478 C   0  0  0  0  0  0  0  0  0  0  0  0
   26.4137   32.6422   58.8627 C   0  0  0  0  0  0  0  0  0  0  0  0
   27.4521   32.5001   59.7931 C   0  0  0  0  0  0  0  0  0  0  0  0
   27.1209   32.0333   61.0408 C   0  0  0  0  0  0  0  0  0  0  0  0
   25.8340   31.7447   61.2894 N   0  0  0  0  0  0  0  0  0  0  0  0
   24.8680   31.8810   60.4115 N   0  0  0  0  0  0  0  0  0  0  0  0
   22.7341   32.1582   58.5454 C   0  0  0  0  0  0  0  0  0  0  0  0
   19.9570   27.5274   59.1354 H   0  0  0  0  0  0  0  0  0  0  0  0
   19.0452   26.9639   56.8844 H   0  0  0  0  0  0  0  0  0  0  0  0
   18.7008   30.7719   54.2522 H   0  0  0  0  0  0  0  0  0  0  0  0
   17.1752   28.0988   51.2530 H   0  0  0  0  0  0  0  0  0  0  0  0
   18.3172   26.6370   55.0329 H   0  0  0  0  0  0  0  0  0  0  0  0
   20.0643   32.1468   59.1222 H   0  0  0  0  0  0  0  0  0  0  0  0
   19.6149   32.6437   57.4673 H   0  0  0  0  0  0  0  0  0  0  0  0
   21.0929   32.8331   55.7174 H   0  0  0  0  0  0  0  0  0  0  0  0
   23.4411   33.4376   55.0282 H   0  0  0  0  0  0  0  0  0  0  0  0
   25.2662   33.2129   56.5869 H   0  0  0  0  0  0  0  0  0  0  0  0
   26.7122   33.0166   57.8778 H   0  0  0  0  0  0  0  0  0  0  0  0
   28.4776   32.7571   59.5134 H   0  0  0  0  0  0  0  0  0  0  0  0
   27.9031   31.9128   61.7822 H   0  0  0  0  0  0  0  0  0  0  0  0
   22.5773   31.8040   59.5410 H   0  0  0  0  0  0  0  0  0  0  0  0
  1  2  2  0
  2  3  1  0
  3  4  2  0
  4  5  1  0
  5  6  1  0
  6  7  2  0
  7  8  1  0
  8  9  1  0
  8 10  2  0
 10 11  1  0
 11 12  1  0
 11 13  2  0
  5 14  2  0
 14 15  1  0
 15 16  1  0
 16 17  1  0
 17 18  2  0
 18 19  1  0
 19 20  2  0
 20 21  1  0
 21 22  1  0
 22 23  2  0
 23 24  1  0
 24 25  2  0
 25 26  1  0
 26 27  2  0
 21 28  2  0
 15  2  1  0
 28 17  1  0
 13  6  1  0
 27 22  1  0
  3 29  1  0
  4 30  1  0
  7 31  1  0
 10 32  1  0
 13 33  1  0
 16 34  1  0
 16 35  1  0
 18 36  1  0
 19 37  1  0
 20 38  1  0
 23 39  1  0
 24 40  1  0
 25 41  1  0
 28 42  1  0
M  END
$$$$
