lig_07
     RDKit          3D

 42 45  0  0  0  0  0  0  0  0999 V2000
  -40.1853  -45.2236   17.1561 C   0  0  0  0  0  0  0  0  0  0  0  0
  -38.8417  -45.1130   16.8105 C   0  0  0  0  0  0  0  0  0  0  0  0
  -40.5502  -45.5374   18.4642 C   0  0  0  0  0  0  0  0  0  0  0  0
  -38.2297  -45.6216   19.0844 C   0  0  0  0  0  0  0  0  0  0  0  0
  -35.9620  -44.0919   16.6242 C   0  0  0  0  0  0  0  0  0  0  0  0
  -35.4608  -46.1044   17.8512 C   0  0  0  0  0  0  0  0  0  0  0  0
  -33.6802  -44.9041   16.7249 C   0  0  0  0  0  0  0  0  0  0  0  0
  -37.0778  -43.7889   23.6837 C   0  0  0  0  0  0  0  0  0  0  0  0
  -38.1753  -43.3854   22.9550 C   0  0  0  0  0  0  0  0  0  0  0  0
  -37.8361  -45.3033   17.7689 C   0  0  0  0  0  0  0  0  0  0  0  0
  -36.4116  -45.1659   17.4132 C   0  0  0  0  0  0  0  0  0  0  0  0
  -39.5815  -45.7580   19.4543 C   0  0  0  0  0  0  0  0  0  0  0  0
  -34.6123  -43.9694   16.2856 C   0  0  0  0  0  0  0  0  0  0  0  0
  -34.1130  -45.9688   17.5090 C   0  0  0  0  0  0  0  0  0  0  0  0
  -37.8508  -45.5605   22.8009 C   0  0  0  0  0  0  0  0  0  0  0  0
  -38.0693  -46.9005   22.3437 C   0  0  0  0  0  0  0  0  0  0  0  0
  -39.9150  -44.7397   21.7307 C   0  0  0  0  0  0  0  0  0  0  0  0
  -39.9669  -46.0516   20.9058 C   0  0  1  0  0  0  0  0  0  0  0  0
  -41.3726  -46.6701   21.0588 C   0  0  0  0  0  0  0  0  0  0  0  0
  -36.8800  -45.1459   23.5836 N   0  0  0  0  0  0  0  0  0  0  0  0
  -38.6705  -44.5382   22.4340 N   0  0  0  0  0  0  0  0  0  0  0  0
  -39.0464  -47.1015   21.4574 N   0  0  0  0  0  0  0  0  0  0  0  0
  -37.2773  -47.8522   22.8168 N   0  0  0  0  0  4  0  0  0  0  0  0
  -34.0980  -42.6468   15.3130 Cl  0  0  0  0  0  0  0  0  0  0  0  0
  -32.9756  -47.1360   18.0609 Cl  0  0  0  0  0  0  0  0  0  0  0  0
  -40.9522  -45.0593   16.4048 H   0  0  0  0  0  0  0  0  0  0  0  0
  -38.5911  -44.8754   15.7789 H   0  0  0  0  0  0  0  0  0  0  0  0
  -41.6107  -45.5921   18.6898 H   0  0  0  0  0  0  0  0  0  0  0  0
  -37.4584  -45.7453   19.8419 H   0  0  0  0  0  0  0  0  0  0  0  0
  -36.6678  -43.3394   16.2764 H   0  0  0  0  0  0  0  0  0  0  0  0
  -35.7737  -46.9540   18.4559 H   0  0  0  0  0  0  0  0  0  0  0  0
  -32.6311  -44.8044   16.4592 H   0  0  0  0  0  0  0  0  0  0  0  0
  -36.4222  -43.1717   24.2795 H   0  0  0  0  0  0  0  0  0  0  0  0
  -38.6360  -42.4214   22.7956 H   0  0  0  0  0  0  0  0  0  0  0  0
  -40.0970  -43.8560   21.1068 H   0  0  0  0  0  0  0  0  0  0  0  0
  -40.6803  -44.7464   22.5168 H   0  0  0  0  0  0  0  0  0  0  0  0
  -41.5396  -46.9939   22.0935 H   0  0  0  0  0  0  0  0  0  0  0  0
  -41.4909  -47.5555   20.4233 H   0  0  0  0  0  0  0  0  0  0  0  0
  -42.1663  -45.9576   20.8102 H   0  0  0  0  0  0  0  0  0  0  0  0
  -39.1630  -48.0587   21.1347 H   0  0  0  0  0  0  0  0  0  0  0  0
  -36.5485  -47.6376   23.4895 H   0  0  0  0  0  0  0  0  0  0  0  0
  -37.3883  -48.8136   22.5159 H   0  0  0  0  0  0  0  0  0  0  0  0
  1  2  2  0
  1  3  1  0
  2 10  1  0
  3 12  2  0
  4 10  2  0
  4 12  1  0
  5 11  2  0
  5 13  1  0
  6 11  1  0
  6 14  2  0
  7 13  2  0
  7 14  1  0
  8  9  2  0
  8 20  1  0
  9 21  1  0
 10 11  1  0
 12 18  1  0
 13 24  1  0
 14 25  1  0
 15 16  1  0
 15 20  2  0
 15 21  1  0
 16 22  1  0
 16 23  2  0
 17 18  1  0
 17 21  1  0
 18 19  1  6
 18 22  1  0
  1 26  1  0
  2 27  1  0
  3 28  1  0
  4 29  1  0
  5 30  1  0
  6 31  1  0
  7 32  1  0
  8 33  1  0
  9 34  1  0
 17 35  1  0
 17 36  1  0
 19 37  1  0
 19 38  1  0
 19 39  1  0
 22 40  1  0
 23 41  1  0
 23 42  1  0
M  CHG  1  23   1
M  END
