
     RDKit          3D

 39 41  0  0  0  0  0  0  0  0999 V2000
   24.5993   34.4954   59.8685 O   0  0  0  0  0  0  0  0  0  0  0  0
   25.3008   33.5228   60.0610 C   0  0  0  0  0  0  0  0  0  0  0  0
   25.1111   32.3195   59.2306 C   0  0  0  0  0  0  0  0  0  0  0  0
   24.0280   32.4955   58.2295 C   0  0  0  0  0  0  0  0  0  0  0  0
   24.3029   32.9931   56.9749 C   0  0  0  0  0  0  0  0  0  0  0  0
   23.2828   33.1426   56.0774 C   0  0  0  0  0  0  0  0  0  0  0  0
   21.9796   32.7940   56.4322 C   0  0  0  0  0  0  0  0  0  0  0  0
   21.6836   32.2939   57.6836 C   0  0  0  0  0  0  0  0  0  0  0  0
   20.2918   31.9411   58.0127 C   0  0  0  0  0  0  0  0  0  0  0  0
   19.9359   30.5802   57.6766 N   0  0  0  0  0  0  0  0  0  0  0  0
   19.4459   30.2244   56.5125 N   0  0  0  0  0  0  0  0  0  0  0  0
   19.1003   28.9664   56.1525 C   0  0  0  0  0  0  0  0  0  0  0  0
   18.5656   28.6980   54.8274 C   0  0  0  0  0  0  0  0  0  0  0  0
   18.4088   29.7502   53.9211 C   0  0  0  0  0  0  0  0  0  0  0  0
   17.9079   29.5494   52.6564 C   0  0  0  0  0  0  0  0  0  0  0  0
   17.7429   30.5410   51.7556 F   0  0  0  0  0  0  0  0  0  0  0  0
   17.5465   28.2691   52.2639 C   0  0  0  0  0  0  0  0  0  0  0  0
   17.6893   27.2292   53.1266 C   0  0  0  0  0  0  0  0  0  0  0  0
   17.3507   25.9848   52.7794 F   0  0  0  0  0  0  0  0  0  0  0  0
   18.1970   27.4606   54.3957 C   0  0  0  0  0  0  0  0  0  0  0  0
   19.2746   27.9721   57.0796 C   0  0  0  0  0  0  0  0  0  0  0  0
   19.7909   28.2948   58.3300 C   0  0  0  0  0  0  0  0  0  0  0  0
   20.1028   29.5950   58.5798 C   0  0  0  0  0  0  0  0  0  0  0  0
   20.5735   29.8614   59.7330 O   0  0  0  0  0  0  0  0  0  0  0  0
   22.7289   32.1529   58.5695 C   0  0  0  0  0  0  0  0  0  0  0  0
   26.0438   33.5750   60.8396 H   0  0  0  0  0  0  0  0  0  0  0  0
   24.8184   31.4523   59.8623 H   0  0  0  0  0  0  0  0  0  0  0  0
   26.0484   32.1383   58.6708 H   0  0  0  0  0  0  0  0  0  0  0  0
   25.3300   33.2569   56.7261 H   0  0  0  0  0  0  0  0  0  0  0  0
   23.5020   33.5387   55.0791 H   0  0  0  0  0  0  0  0  0  0  0  0
   21.1951   32.9222   55.7053 H   0  0  0  0  0  0  0  0  0  0  0  0
   20.1665   32.0467   59.1169 H   0  0  0  0  0  0  0  0  0  0  0  0
   19.6238   32.6175   57.4498 H   0  0  0  0  0  0  0  0  0  0  0  0
   18.6933   30.7299   54.2431 H   0  0  0  0  0  0  0  0  0  0  0  0
   17.1464   28.0849   51.2647 H   0  0  0  0  0  0  0  0  0  0  0  0
   18.3006   26.6050   55.0679 H   0  0  0  0  0  0  0  0  0  0  0  0
   19.0113   26.9574   56.8311 H   0  0  0  0  0  0  0  0  0  0  0  0
   19.9136   27.4837   59.0335 H   0  0  0  0  0  0  0  0  0  0  0  0
   22.5335   31.7682   59.5504 H   0  0  0  0  0  0  0  0  0  0  0  0
  1  2  2  0
  2  3  1  0
  3  4  1  0
  4  5  2  0
  5  6  1  0
  6  7  2  0
  7  8  1  0
  8  9  1  0
  9 10  1  0
 10 11  1  0
 11 12  2  0
 12 13  1  0
 13 14  2  0
 14 15  1  0
 15 16  1  0
 15 17  2  0
 17 18  1  0
 18 19  1  0
 18 20  2  0
 12 21  1  0
 21 22  2  0
 22 23  1  0
 23 24  2  0
  8 25  2  0
 25  4  1  0
 23 10  1  0
 20 13  1  0
  2 26  1  0
  3 27  1  0
  3 28  1  0
  5 29  1  0
  6 30  1  0
  7 31  1  0
  9 32  1  0
  9 33  1  0
 14 34  1  0
 17 35  1  0
 20 36  1  0
 21 37  1  0
 22 38  1  0
 25 39  1  0
M  END
$$$$
