
     RDKit          3D

 40 43  0  0  0  0  0  0  0  0999 V2000
   20.3809   30.4175   59.8785 O   0  0  0  0  0  0  0  0  0  0  0  0
   19.8449   30.1448   58.7471 C   0  0  0  0  0  0  0  0  0  0  0  0
   18.4737   30.1171   58.6094 C   0  0  0  0  0  0  0  0  0  0  0  0
   17.9627   29.8151   57.3621 C   0  0  0  0  0  0  0  0  0  0  0  0
   18.7655   29.5476   56.2795 C   0  0  0  0  0  0  0  0  0  0  0  0
   18.2291   29.2252   54.9487 C   0  0  0  0  0  0  0  0  0  0  0  0
   16.8957   29.1586   54.6523 C   0  0  0  0  0  0  0  0  0  0  0  0
   16.3977   28.8571   53.4080 C   0  0  0  0  0  0  0  0  0  0  0  0
   15.0647   28.8158   53.2156 F   0  0  0  0  0  0  0  0  0  0  0  0
   17.2837   28.6030   52.3814 C   0  0  0  0  0  0  0  0  0  0  0  0
   18.6396   28.6575   52.6282 C   0  0  0  0  0  0  0  0  0  0  0  0
   19.4646   28.4003   51.5885 F   0  0  0  0  0  0  0  0  0  0  0  0
   19.1042   28.9634   53.8903 C   0  0  0  0  0  0  0  0  0  0  0  0
   20.0923   29.5943   56.4937 N   0  0  0  0  0  0  0  0  0  0  0  0
   20.6198   29.8821   57.6826 N   0  0  0  0  0  0  0  0  0  0  0  0
   22.0725   29.9243   57.8523 C   0  0  0  0  0  0  0  0  0  0  0  0
   22.6471   31.2572   57.5668 C   0  0  0  0  0  0  0  0  0  0  0  0
   22.8766   32.1403   58.5925 C   0  0  0  0  0  0  0  0  0  0  0  0
   23.4084   33.3755   58.2832 C   0  0  0  0  0  0  0  0  0  0  0  0
   23.6978   33.7035   56.9766 C   0  0  0  0  0  0  0  0  0  0  0  0
   23.4730   32.8280   55.9380 C   0  0  0  0  0  0  0  0  0  0  0  0
   23.7997   33.2241   54.5499 C   0  0  0  0  0  0  0  0  0  0  0  0
   24.2390   34.1304   53.9178 N   0  0  0  0  0  0  0  0  0  0  0  0
   24.4361   34.2379   52.6458 C   0  0  0  0  0  0  0  0  0  0  0  0
   24.0829   33.1339   51.9127 C   0  0  0  0  0  0  0  0  0  0  0  0
   23.4743   31.9960   53.1772 S   0  0  0  0  0  0  0  0  0  0  0  0
   22.9433   31.5994   56.2515 C   0  0  0  0  0  0  0  0  0  0  0  0
   17.8256   30.3291   59.4671 H   0  0  0  0  0  0  0  0  0  0  0  0
   16.8834   29.7922   57.2492 H   0  0  0  0  0  0  0  0  0  0  0  0
   16.1789   29.3517   55.4317 H   0  0  0  0  0  0  0  0  0  0  0  0
   16.8848   28.3619   51.3865 H   0  0  0  0  0  0  0  0  0  0  0  0
   20.1617   29.0086   54.0940 H   0  0  0  0  0  0  0  0  0  0  0  0
   22.4754   29.1609   57.1446 H   0  0  0  0  0  0  0  0  0  0  0  0
   22.3793   29.6288   58.8655 H   0  0  0  0  0  0  0  0  0  0  0  0
   22.6512   31.8821   59.6408 H   0  0  0  0  0  0  0  0  0  0  0  0
   23.5890   34.0724   59.0958 H   0  0  0  0  0  0  0  0  0  0  0  0
   24.1173   34.6677   56.6986 H   0  0  0  0  0  0  0  0  0  0  0  0
   24.8612   35.1478   52.1434 H   0  0  0  0  0  0  0  0  0  0  0  0
   24.1266   32.9017   50.7841 H   0  0  0  0  0  0  0  0  0  0  0  0
   22.7552   30.8826   55.4350 H   0  0  0  0  0  0  0  0  0  0  0  0
  1  2  2  0
  2  3  1  0
  3  4  2  0
  4  5  1  0
  5  6  1  0
  6  7  2  0
  7  8  1  0
  8  9  1  0
  8 10  2  0
 10 11  1  0
 11 12  1  0
 11 13  2  0
  5 14  2  0
 14 15  1  0
 15 16  1  0
 16 17  1  0
 17 18  2  0
 18 19  1  0
 19 20  2  0
 20 21  1  0
 21 22  1  0
 22 23  2  0
 23 24  1  0
 24 25  2  0
 25 26  1  0
 21 27  2  0
 15  2  1  0
 27 17  1  0
 13  6  1  0
 26 22  1  0
  3 28  1  0
  4 29  1  0
  7 30  1  0
 10 31  1  0
 13 32  1  0
 16 33  1  0
 16 34  1  0
 18 35  1  0
 19 36  1  0
 20 37  1  0
 24 38  1  0
 25 39  1  0
 27 40  1  0
M  END
$$$$
