
     RDKit          3D

 43 46  0  0  0  0  0  0  0  0999 V2000
   25.9879   34.0968   52.0755 C   0  0  0  0  0  0  0  0  0  0  0  0
   24.8295   33.7057   52.9562 C   0  0  0  0  0  0  0  0  0  0  0  0
   24.9025   33.4004   54.2650 N   0  0  0  0  0  0  0  0  0  0  0  0
   23.6723   33.1021   54.7170 C   0  0  0  0  0  0  0  0  0  0  0  0
   23.2726   32.7132   56.0710 C   0  0  0  0  0  0  0  0  0  0  0  0
   24.2167   32.6143   57.0792 C   0  0  0  0  0  0  0  0  0  0  0  0
   23.8826   32.2521   58.3646 C   0  0  0  0  0  0  0  0  0  0  0  0
   22.5630   31.9812   58.6468 C   0  0  0  0  0  0  0  0  0  0  0  0
   21.5857   32.0650   57.6793 C   0  0  0  0  0  0  0  0  0  0  0  0
   20.1694   31.7820   57.9404 C   0  0  0  0  0  0  0  0  0  0  0  0
   19.8314   30.3953   57.6760 N   0  0  0  0  0  0  0  0  0  0  0  0
   19.4405   30.0763   56.4515 N   0  0  0  0  0  0  0  0  0  0  0  0
   19.1080   28.8208   56.1029 C   0  0  0  0  0  0  0  0  0  0  0  0
   18.6784   28.5036   54.7335 C   0  0  0  0  0  0  0  0  0  0  0  0
   18.3277   27.2660   54.3041 C   0  0  0  0  0  0  0  0  0  0  0  0
   17.9299   27.0371   52.9905 C   0  0  0  0  0  0  0  0  0  0  0  0
   17.5824   25.7893   52.5803 F   0  0  0  0  0  0  0  0  0  0  0  0
   17.8945   28.0970   52.1135 C   0  0  0  0  0  0  0  0  0  0  0  0
   18.2424   29.3715   52.5062 C   0  0  0  0  0  0  0  0  0  0  0  0
   18.1988   30.4047   51.6176 F   0  0  0  0  0  0  0  0  0  0  0  0
   18.6269   29.5386   53.8140 C   0  0  0  0  0  0  0  0  0  0  0  0
   19.1943   27.8680   57.0935 C   0  0  0  0  0  0  0  0  0  0  0  0
   19.6044   28.1911   58.3868 C   0  0  0  0  0  0  0  0  0  0  0  0
   19.9280   29.4973   58.6667 C   0  0  0  0  0  0  0  0  0  0  0  0
   20.3096   29.8563   59.8304 O   0  0  0  0  0  0  0  0  0  0  0  0
   21.9706   32.4374   56.3841 C   0  0  0  0  0  0  0  0  0  0  0  0
   22.8326   33.2333   53.6408 C   0  0  0  0  0  0  0  0  0  0  0  0
   23.5738   33.5971   52.6078 O   0  0  0  0  0  0  0  0  0  0  0  0
   26.4385   33.2304   51.5868 H   0  0  0  0  0  0  0  0  0  0  0  0
   25.6618   34.8961   51.3822 H   0  0  0  0  0  0  0  0  0  0  0  0
   26.7660   34.5633   52.7351 H   0  0  0  0  0  0  0  0  0  0  0  0
   25.2381   32.8313   56.8306 H   0  0  0  0  0  0  0  0  0  0  0  0
   24.6732   32.1976   59.0916 H   0  0  0  0  0  0  0  0  0  0  0  0
   22.3172   31.7030   59.6481 H   0  0  0  0  0  0  0  0  0  0  0  0
   19.9264   32.0173   59.0118 H   0  0  0  0  0  0  0  0  0  0  0  0
   19.5200   32.4131   57.3241 H   0  0  0  0  0  0  0  0  0  0  0  0
   18.3554   26.4363   54.9909 H   0  0  0  0  0  0  0  0  0  0  0  0
   17.5926   27.9780   51.0777 H   0  0  0  0  0  0  0  0  0  0  0  0
   18.9018   30.5232   54.1405 H   0  0  0  0  0  0  0  0  0  0  0  0
   18.9437   26.8488   56.8823 H   0  0  0  0  0  0  0  0  0  0  0  0
   19.6812   27.4756   59.1751 H   0  0  0  0  0  0  0  0  0  0  0  0
   21.1960   32.5015   55.6274 H   0  0  0  0  0  0  0  0  0  0  0  0
   21.7701   33.0634   53.6686 H   0  0  0  0  0  0  0  0  0  0  0  0
  1  2  1  0
  2  3  2  0
  3  4  1  0
  4  5  1  0
  5  6  2  0
  6  7  1  0
  7  8  2  0
  8  9  1  0
  9 10  1  0
 10 11  1  0
 11 12  1  0
 12 13  2  0
 13 14  1  0
 14 15  2  0
 15 16  1  0
 16 17  1  0
 16 18  2  0
 18 19  1  0
 19 20  1  0
 19 21  2  0
 13 22  1  0
 22 23  2  0
 23 24  1  0
 24 25  2  0
  9 26  2  0
  4 27  2  0
 27 28  1  0
 28  2  1  0
 26  5  1  0
 24 11  1  0
 21 14  1  0
  1 29  1  0
  1 30  1  0
  1 31  1  0
  6 32  1  0
  7 33  1  0
  8 34  1  0
 10 35  1  0
 10 36  1  0
 15 37  1  0
 18 38  1  0
 21 39  1  0
 22 40  1  0
 23 41  1  0
 26 42  1  0
 27 43  1  0
M  END
$$$$
