
     RDKit          3D

 40 43  0  0  0  0  0  0  0  0999 V2000
   20.3186   29.7900   59.8943 O   0  0  0  0  0  0  0  0  0  0  0  0
   19.9298   29.4689   58.7164 C   0  0  0  0  0  0  0  0  0  0  0  0
   19.5906   28.1640   58.4397 C   0  0  0  0  0  0  0  0  0  0  0  0
   19.1744   27.8429   57.1627 C   0  0  0  0  0  0  0  0  0  0  0  0
   19.0947   28.7983   56.1732 C   0  0  0  0  0  0  0  0  0  0  0  0
   18.6584   28.4726   54.8266 C   0  0  0  0  0  0  0  0  0  0  0  0
   18.6161   29.5224   53.9032 C   0  0  0  0  0  0  0  0  0  0  0  0
   18.2189   29.3352   52.5968 C   0  0  0  0  0  0  0  0  0  0  0  0
   18.1777   30.3537   51.7006 F   0  0  0  0  0  0  0  0  0  0  0  0
   17.8459   28.0823   52.1598 C   0  0  0  0  0  0  0  0  0  0  0  0
   17.8822   27.0387   53.0565 C   0  0  0  0  0  0  0  0  0  0  0  0
   17.5318   25.7784   52.7067 F   0  0  0  0  0  0  0  0  0  0  0  0
   18.2867   27.2454   54.3750 C   0  0  0  0  0  0  0  0  0  0  0  0
   19.4457   30.0425   56.5368 N   0  0  0  0  0  0  0  0  0  0  0  0
   19.8465   30.3847   57.7425 N   0  0  0  0  0  0  0  0  0  0  0  0
   20.1883   31.7521   57.9769 C   0  0  0  0  0  0  0  0  0  0  0  0
   21.6015   32.0844   57.7226 C   0  0  0  0  0  0  0  0  0  0  0  0
   22.5589   32.0209   58.7044 C   0  0  0  0  0  0  0  0  0  0  0  0
   23.8506   32.3440   58.3870 C   0  0  0  0  0  0  0  0  0  0  0  0
   24.1979   32.7315   57.0934 C   0  0  0  0  0  0  0  0  0  0  0  0
   23.2317   32.7932   56.1122 C   0  0  0  0  0  0  0  0  0  0  0  0
   23.6130   33.2044   54.7479 C   0  0  0  0  0  0  0  0  0  0  0  0
   24.8408   33.5427   54.3182 N   0  0  0  0  0  0  0  0  0  0  0  0
   24.8209   33.8643   53.0103 C   0  0  0  0  0  0  0  0  0  0  0  0
   23.4859   33.7041   52.6426 C   0  0  0  0  0  0  0  0  0  0  0  0
   22.8247   33.3150   53.7059 O   0  0  0  0  0  0  0  0  0  0  0  0
   21.9302   32.4695   56.4249 C   0  0  0  0  0  0  0  0  0  0  0  0
   19.6562   27.4116   59.2297 H   0  0  0  0  0  0  0  0  0  0  0  0
   18.9064   26.8046   56.9499 H   0  0  0  0  0  0  0  0  0  0  0  0
   18.8959   30.5134   54.1937 H   0  0  0  0  0  0  0  0  0  0  0  0
   17.5264   27.9175   51.1193 H   0  0  0  0  0  0  0  0  0  0  0  0
   18.3101   26.4120   55.0708 H   0  0  0  0  0  0  0  0  0  0  0  0
   19.5615   32.4161   57.3477 H   0  0  0  0  0  0  0  0  0  0  0  0
   19.9114   31.9693   59.0500 H   0  0  0  0  0  0  0  0  0  0  0  0
   22.2626   31.7157   59.7094 H   0  0  0  0  0  0  0  0  0  0  0  0
   24.6046   32.2911   59.1716 H   0  0  0  0  0  0  0  0  0  0  0  0
   25.2195   32.9883   56.8373 H   0  0  0  0  0  0  0  0  0  0  0  0
   25.6288   34.1775   52.3631 H   0  0  0  0  0  0  0  0  0  0  0  0
   23.1412   33.8893   51.6372 H   0  0  0  0  0  0  0  0  0  0  0  0
   21.1761   32.5214   55.6438 H   0  0  0  0  0  0  0  0  0  0  0  0
  1  2  2  0
  2  3  1  0
  3  4  2  0
  4  5  1  0
  5  6  1  0
  6  7  2  0
  7  8  1  0
  8  9  1  0
  8 10  2  0
 10 11  1  0
 11 12  1  0
 11 13  2  0
  5 14  2  0
 14 15  1  0
 15 16  1  0
 16 17  1  0
 17 18  2  0
 18 19  1  0
 19 20  2  0
 20 21  1  0
 21 22  1  0
 22 23  2  0
 23 24  1  0
 24 25  2  0
 25 26  1  0
 21 27  2  0
 15  2  1  0
 27 17  1  0
 13  6  1  0
 26 22  1  0
  3 28  1  0
  4 29  1  0
  7 30  1  0
 10 31  1  0
 13 32  1  0
 16 33  1  0
 16 34  1  0
 18 35  1  0
 19 36  1  0
 20 37  1  0
 24 38  1  0
 25 39  1  0
 27 40  1  0
M  END
$$$$
