
     RDKit          3D

 45 48  0  0  0  0  0  0  0  0999 V2000
   20.6911   29.5603   59.7608 O   0  0  0  0  0  0  0  0  0  0  0  0
   20.1470   29.3700   58.6393 C   0  0  0  0  0  0  0  0  0  0  0  0
   19.8408   28.0927   58.2935 C   0  0  0  0  0  0  0  0  0  0  0  0
   19.2400   27.8681   57.0587 C   0  0  0  0  0  0  0  0  0  0  0  0
   18.9866   28.9497   56.2512 C   0  0  0  0  0  0  0  0  0  0  0  0
   18.3565   28.7910   54.9375 C   0  0  0  0  0  0  0  0  0  0  0  0
   17.9720   27.5961   54.4035 C   0  0  0  0  0  0  0  0  0  0  0  0
   17.3785   27.4786   53.1582 C   0  0  0  0  0  0  0  0  0  0  0  0
   17.0078   26.2787   52.6551 F   0  0  0  0  0  0  0  0  0  0  0  0
   17.1550   28.6019   52.4050 C   0  0  0  0  0  0  0  0  0  0  0  0
   17.5341   29.8232   52.9212 C   0  0  0  0  0  0  0  0  0  0  0  0
   17.3036   30.9250   52.1582 F   0  0  0  0  0  0  0  0  0  0  0  0
   18.1243   29.9261   54.1627 C   0  0  0  0  0  0  0  0  0  0  0  0
   19.3323   30.1772   56.6940 N   0  0  0  0  0  0  0  0  0  0  0  0
   19.9006   30.4361   57.8506 N   0  0  0  0  0  0  0  0  0  0  0  0
   20.2432   31.7786   58.2580 C   0  0  0  0  0  0  0  0  0  0  0  0
   21.5932   32.1928   57.8605 C   0  0  0  0  0  0  0  0  0  0  0  0
   22.6936   31.9961   58.6584 C   0  0  0  0  0  0  0  0  0  0  0  0
   23.9661   32.3952   58.2649 C   0  0  0  0  0  0  0  0  0  0  0  0
   24.1221   33.0097   57.0287 C   0  0  0  0  0  0  0  0  0  0  0  0
   23.0310   33.2160   56.2140 C   0  0  0  0  0  0  0  0  0  0  0  0
   23.2514   33.8717   54.9165 C   0  0  0  0  0  0  0  0  0  0  0  0
   24.4186   34.2425   54.5512 N   0  0  0  0  0  0  0  0  0  0  0  0
   24.7455   34.8915   53.3053 C   0  0  0  0  0  0  0  0  0  0  0  0
   23.7148   34.6879   52.2750 C   0  0  0  0  0  0  0  0  0  0  0  0
   22.4884   34.3245   52.6012 C   0  0  0  0  0  0  0  0  0  0  0  0
   22.1025   34.1080   54.0146 C   0  0  0  0  0  0  0  0  0  0  0  0
   21.7793   32.8052   56.6394 C   0  0  0  0  0  0  0  0  0  0  0  0
   20.0387   27.2227   58.9303 H   0  0  0  0  0  0  0  0  0  0  0  0
   18.9748   26.8872   56.7288 H   0  0  0  0  0  0  0  0  0  0  0  0
   18.1291   26.6880   54.9617 H   0  0  0  0  0  0  0  0  0  0  0  0
   16.6846   28.5432   51.4098 H   0  0  0  0  0  0  0  0  0  0  0  0
   18.4174   30.8927   54.5564 H   0  0  0  0  0  0  0  0  0  0  0  0
   20.1548   31.9233   59.3545 H   0  0  0  0  0  0  0  0  0  0  0  0
   19.4967   32.4950   57.8115 H   0  0  0  0  0  0  0  0  0  0  0  0
   22.6052   31.5270   59.6130 H   0  0  0  0  0  0  0  0  0  0  0  0
   24.8509   32.2560   58.8666 H   0  0  0  0  0  0  0  0  0  0  0  0
   25.1039   33.3278   56.7039 H   0  0  0  0  0  0  0  0  0  0  0  0
   24.9218   35.9723   53.4332 H   0  0  0  0  0  0  0  0  0  0  0  0
   25.6999   34.4463   52.8985 H   0  0  0  0  0  0  0  0  0  0  0  0
   23.9593   34.8361   51.2388 H   0  0  0  0  0  0  0  0  0  0  0  0
   21.7494   34.1807   51.8328 H   0  0  0  0  0  0  0  0  0  0  0  0
   21.4833   34.9756   54.3744 H   0  0  0  0  0  0  0  0  0  0  0  0
   21.4695   33.1765   54.0203 H   0  0  0  0  0  0  0  0  0  0  0  0
   20.9456   32.9850   55.9722 H   0  0  0  0  0  0  0  0  0  0  0  0
  1  2  2  0
  2  3  1  0
  3  4  2  0
  4  5  1  0
  5  6  1  0
  6  7  2  0
  7  8  1  0
  8  9  1  0
  8 10  2  0
 10 11  1  0
 11 12  1  0
 11 13  2  0
  5 14  2  0
 14 15  1  0
 15 16  1  0
 16 17  1  0
 17 18  2  0
 18 19  1  0
 19 20  2  0
 20 21  1  0
 21 22  1  0
 22 23  2  0
 23 24  1  0
 24 25  1  0
 25 26  2  0
 26 27  1  0
 21 28  2  0
 15  2  1  0
 28 17  1  0
 13  6  1  0
 27 22  1  0
  3 29  1  0
  4 30  1  0
  7 31  1  0
 10 32  1  0
 13 33  1  0
 16 34  1  0
 16 35  1  0
 18 36  1  0
 19 37  1  0
 20 38  1  0
 24 39  1  0
 24 40  1  0
 25 41  1  0
 26 42  1  0
 27 43  1  0
 27 44  1  0
 28 45  1  0
M  END
$$$$
