
     RDKit          3D

 42 45  0  0  0  0  0  0  0  0999 V2000
   20.7240   29.5839   59.7611 O   0  0  0  0  0  0  0  0  0  0  0  0
   20.1739   29.3676   58.6306 C   0  0  0  0  0  0  0  0  0  0  0  0
   19.9163   28.0650   58.2642 C   0  0  0  0  0  0  0  0  0  0  0  0
   19.3124   27.8386   57.0231 C   0  0  0  0  0  0  0  0  0  0  0  0
   19.0234   28.9452   56.2650 C   0  0  0  0  0  0  0  0  0  0  0  0
   18.3855   28.8008   54.9417 C   0  0  0  0  0  0  0  0  0  0  0  0
   18.0462   27.5916   54.3906 C   0  0  0  0  0  0  0  0  0  0  0  0
   17.4439   27.5220   53.1322 C   0  0  0  0  0  0  0  0  0  0  0  0
   17.1357   26.3085   52.6472 F   0  0  0  0  0  0  0  0  0  0  0  0
   17.1947   28.6876   52.4504 C   0  0  0  0  0  0  0  0  0  0  0  0
   17.5170   29.9200   52.9626 C   0  0  0  0  0  0  0  0  0  0  0  0
   17.2636   31.0776   52.2729 F   0  0  0  0  0  0  0  0  0  0  0  0
   18.1084   29.9420   54.2044 C   0  0  0  0  0  0  0  0  0  0  0  0
   19.2982   30.1951   56.6746 N   0  0  0  0  0  0  0  0  0  0  0  0
   19.8665   30.4096   57.8421 N   0  0  0  0  0  0  0  0  0  0  0  0
   20.1796   31.7563   58.3098 C   0  0  0  0  0  0  0  0  0  0  0  0
   21.5274   32.2067   57.8901 C   0  0  0  0  0  0  0  0  0  0  0  0
   21.6939   32.8227   56.6564 C   0  0  0  0  0  0  0  0  0  0  0  0
   22.9227   33.2659   56.2132 C   0  0  0  0  0  0  0  0  0  0  0  0
   24.0318   33.0821   57.0459 C   0  0  0  0  0  0  0  0  0  0  0  0
   23.8984   32.4738   58.2768 C   0  0  0  0  0  0  0  0  0  0  0  0
   25.0773   32.2887   59.1404 C   0  0  0  0  0  0  0  0  0  0  0  0
   26.2911   32.6349   58.8959 N   0  0  0  0  0  0  0  0  0  0  0  0
   27.1339   32.2801   59.9830 C   0  0  0  0  0  0  0  0  0  0  0  0
   26.4308   31.6971   60.9322 C   0  0  0  0  0  0  0  0  0  0  0  0
   25.0300   31.6515   60.4669 C   0  0  0  0  0  0  0  0  0  0  0  0
   22.6465   32.0475   58.6751 C   0  0  0  0  0  0  0  0  0  0  0  0
   20.1768   27.2519   58.9225 H   0  0  0  0  0  0  0  0  0  0  0  0
   19.1065   26.8319   56.7256 H   0  0  0  0  0  0  0  0  0  0  0  0
   18.2565   26.6964   54.9540 H   0  0  0  0  0  0  0  0  0  0  0  0
   16.7301   28.6153   51.4821 H   0  0  0  0  0  0  0  0  0  0  0  0
   18.3626   30.9329   54.6058 H   0  0  0  0  0  0  0  0  0  0  0  0
   20.1188   31.7946   59.4195 H   0  0  0  0  0  0  0  0  0  0  0  0
   19.4007   32.4720   57.9439 H   0  0  0  0  0  0  0  0  0  0  0  0
   20.8455   32.9841   55.9754 H   0  0  0  0  0  0  0  0  0  0  0  0
   23.0077   33.7410   55.2442 H   0  0  0  0  0  0  0  0  0  0  0  0
   24.9957   33.4234   56.7117 H   0  0  0  0  0  0  0  0  0  0  0  0
   28.2073   32.4457   60.0636 H   0  0  0  0  0  0  0  0  0  0  0  0
   26.8357   31.3230   61.8844 H   0  0  0  0  0  0  0  0  0  0  0  0
   24.6479   30.6078   60.4097 H   0  0  0  0  0  0  0  0  0  0  0  0
   24.4277   32.2393   61.2016 H   0  0  0  0  0  0  0  0  0  0  0  0
   22.5821   31.5780   59.6464 H   0  0  0  0  0  0  0  0  0  0  0  0
  1  2  2  0
  2  3  1  0
  3  4  2  0
  4  5  1  0
  5  6  1  0
  6  7  2  0
  7  8  1  0
  8  9  1  0
  8 10  2  0
 10 11  1  0
 11 12  1  0
 11 13  2  0
  5 14  2  0
 14 15  1  0
 15 16  1  0
 16 17  1  0
 17 18  2  0
 18 19  1  0
 19 20  2  0
 20 21  1  0
 21 22  1  0
 22 23  2  0
 23 24  1  0
 24 25  2  0
 25 26  1  0
 21 27  2  0
 15  2  1  0
 27 17  1  0
 13  6  1  0
 26 22  1  0
  3 28  1  0
  4 29  1  0
  7 30  1  0
 10 31  1  0
 13 32  1  0
 16 33  1  0
 16 34  1  0
 18 35  1  0
 19 36  1  0
 20 37  1  0
 24 38  1  0
 25 39  1  0
 26 40  1  0
 26 41  1  0
 27 42  1  0
M  END
$$$$
