lig_81
     RDKit          3D

 45 48  0  0  0  0  0  0  0  0999 V2000
  -29.8991  -46.6444   17.3498 C   0  0  0  0  0  0  0  0  0  0  0  0
  -31.5880  -45.2092   16.2997 C   0  0  0  0  0  0  0  0  0  0  0  0
  -38.2803  -44.7175   17.1436 C   0  0  0  0  0  0  0  0  0  0  0  0
  -39.6235  -44.5074   17.4340 C   0  0  0  0  0  0  0  0  0  0  0  0
  -32.9168  -44.8244   16.1631 C   0  0  0  0  0  0  0  0  0  0  0  0
  -38.0005  -45.7575   19.3081 C   0  0  0  0  0  0  0  0  0  0  0  0
  -32.2711  -46.8151   17.9250 C   0  0  0  0  0  0  0  0  0  0  0  0
  -39.0485  -42.8007   22.7748 C   0  0  0  0  0  0  0  0  0  0  0  0
  -31.2529  -46.2240   17.1922 C   0  0  0  0  0  0  0  0  0  0  0  0
  -39.3521  -45.5442   19.6329 C   0  0  0  0  0  0  0  0  0  0  0  0
  -37.4536  -45.3336   18.0825 C   0  0  0  0  0  0  0  0  0  0  0  0
  -40.1408  -44.9069   18.6628 C   0  0  0  0  0  0  0  0  0  0  0  0
  -33.8636  -45.4764   16.9430 C   0  0  0  0  0  0  0  0  0  0  0  0
  -38.2345  -44.8187   22.8526 C   0  0  0  0  0  0  0  0  0  0  0  0
  -38.1576  -46.2394   22.6464 C   0  0  0  0  0  0  0  0  0  0  0  0
  -35.2928  -45.1019   16.8354 C   0  0  0  0  0  0  0  0  0  0  0  0
  -40.4180  -44.7168   21.7933 C   0  0  0  0  0  0  0  0  0  0  0  0
  -39.9371  -45.9630   20.9952 C   0  0  1  0  0  0  0  0  0  0  0  0
  -41.1466  -46.8959   20.7665 C   0  0  0  0  0  0  0  0  0  0  0  0
  -28.7986  -46.9881   17.4796 N   0  0  0  0  0  0  0  0  0  0  0  0
  -33.5710  -46.4617   17.8239 N   0  0  0  0  0  0  0  0  0  0  0  0
  -37.8875  -42.7445   23.3970 N   0  0  0  0  0  0  0  0  0  0  0  0
  -37.3729  -44.0340   23.4583 N   0  0  0  0  0  0  0  0  0  0  0  0
  -38.9871  -46.7880   21.8050 N   0  0  0  0  0  0  0  0  0  0  0  0
  -39.2924  -44.0810   22.4313 N   0  0  0  0  0  0  0  0  0  0  0  0
  -37.2387  -47.0061   23.3224 N   0  0  0  0  0  4  0  0  0  0  0  0
  -36.0706  -45.5553   17.8892 N   0  0  0  0  0  0  0  0  0  0  0  0
  -35.6500  -44.4278   15.8767 O   0  0  0  0  0  0  0  0  0  0  0  0
  -41.4358  -44.6547   18.8997 F   0  0  0  0  0  0  0  0  0  0  0  0
  -30.8196  -44.7235   15.7166 H   0  0  0  0  0  0  0  0  0  0  0  0
  -37.8775  -44.4039   16.1919 H   0  0  0  0  0  0  0  0  0  0  0  0
  -40.2657  -44.0341   16.7060 H   0  0  0  0  0  0  0  0  0  0  0  0
  -33.2036  -44.0443   15.4734 H   0  0  0  0  0  0  0  0  0  0  0  0
  -37.3635  -46.2614   20.0200 H   0  0  0  0  0  0  0  0  0  0  0  0
  -32.0099  -47.6030   18.6160 H   0  0  0  0  0  0  0  0  0  0  0  0
  -39.6965  -41.9604   22.5737 H   0  0  0  0  0  0  0  0  0  0  0  0
  -40.8975  -44.0052   21.1051 H   0  0  0  0  0  0  0  0  0  0  0  0
  -41.1423  -45.0309   22.5592 H   0  0  0  0  0  0  0  0  0  0  0  0
  -41.5669  -47.1969   21.7374 H   0  0  0  0  0  0  0  0  0  0  0  0
  -41.9138  -46.3651   20.1837 H   0  0  0  0  0  0  0  0  0  0  0  0
  -40.8206  -47.7901   20.2151 H   0  0  0  0  0  0  0  0  0  0  0  0
  -37.2030  -47.9938   23.1702 H   0  0  0  0  0  0  0  0  0  0  0  0
  -36.6059  -46.5762   23.9664 H   0  0  0  0  0  0  0  0  0  0  0  0
  -35.6035  -46.0974   18.5878 H   0  0  0  0  0  0  0  0  0  0  0  0
  -38.9890  -47.7823   21.6980 H   0  0  0  0  0  0  0  0  0  0  0  0
  1  9  1  0
  1 20  3  0
  2  5  2  0
  2  9  1  0
  3  4  2  0
  3 11  1  0
  4 12  1  0
  5 13  1  0
  6 10  1  0
  6 11  2  0
  7  9  2  0
  7 21  1  0
  8 22  2  0
  8 25  1  0
 10 12  2  0
 10 18  1  0
 11 27  1  0
 12 29  1  0
 13 16  1  0
 13 21  2  0
 14 15  1  0
 14 23  2  0
 14 25  1  0
 15 24  1  0
 15 26  2  0
 16 27  1  0
 16 28  2  0
 17 18  1  0
 17 25  1  0
 18 19  1  6
 18 24  1  0
 22 23  1  0
  2 30  1  0
  3 31  1  0
  4 32  1  0
  5 33  1  0
  6 34  1  0
  7 35  1  0
  8 36  1  0
 17 37  1  0
 17 38  1  0
 19 39  1  0
 19 40  1  0
 19 41  1  0
 26 42  1  0
 26 43  1  0
 27 44  1  0
 24 45  1  0
M  CHG  1  26   1
M  END
