lig_11
     RDKit          3D

 47 50  0  0  0  0  0  0  0  0999 V2000
  -34.2682  -44.3482   16.0497 C   0  0  0  0  0  0  0  0  0  0  0  0
  -34.4070  -45.0810   17.2283 C   0  0  0  0  0  0  0  0  0  0  0  0
  -35.3941  -43.8099   15.4264 C   0  0  0  0  0  0  0  0  0  0  0  0
  -35.6717  -45.2757   17.7837 C   0  0  0  0  0  0  0  0  0  0  0  0
  -36.6587  -44.0046   15.9817 C   0  0  0  0  0  0  0  0  0  0  0  0
  -39.2297  -44.9930   16.9141 C   0  0  0  0  0  0  0  0  0  0  0  0
  -40.4897  -45.1962   17.4719 C   0  0  0  0  0  0  0  0  0  0  0  0
  -38.2505  -45.0769   19.1185 C   0  0  0  0  0  0  0  0  0  0  0  0
  -36.7975  -44.7375   17.1604 C   0  0  0  0  0  0  0  0  0  0  0  0
  -38.1091  -44.9395   17.7369 C   0  0  0  0  0  0  0  0  0  0  0  0
  -39.5158  -45.2685   19.6992 C   0  0  0  0  0  0  0  0  0  0  0  0
  -40.6319  -45.3496   18.8552 C   0  0  0  0  0  0  0  0  0  0  0  0
  -38.9160  -44.2713   21.9588 C   0  0  0  0  0  0  0  0  0  0  0  0
  -37.9818  -46.2798   22.6098 C   0  0  0  0  0  0  0  0  0  0  0  0
  -41.1401  -45.3790   21.6194 C   0  0  0  0  0  0  0  0  0  0  0  0
  -39.6728  -45.3888   21.1918 C   0  0  1  0  0  0  0  0  0  0  0  0
  -42.0563  -46.1036   20.6195 C   0  0  0  0  0  0  0  0  0  0  0  0
  -43.5180  -45.8439   21.0202 C   0  0  0  0  0  0  0  0  0  0  0  0
  -41.8376  -47.6230   20.5740 C   0  0  0  0  0  0  0  0  0  0  0  0
  -37.0447  -44.1736   23.6727 C   0  0  0  0  0  0  0  0  0  0  0  0
  -37.9335  -44.9184   22.7887 N   0  0  0  0  0  0  0  0  0  0  0  0
  -38.9715  -46.6070   21.6804 N   0  0  0  0  0  0  0  0  0  0  0  0
  -37.1892  -47.2122   23.2297 N   0  0  0  0  0  4  0  0  0  0  0  0
  -39.1039  -43.0681   21.8770 O   0  0  0  0  0  0  0  0  0  0  0  0
  -41.9123  -45.5627   19.2947 O   0  0  0  0  0  0  0  0  0  0  0  0
  -33.2833  -44.1952   15.6184 H   0  0  0  0  0  0  0  0  0  0  0  0
  -33.5304  -45.4987   17.7146 H   0  0  0  0  0  0  0  0  0  0  0  0
  -35.2866  -43.2380   14.5094 H   0  0  0  0  0  0  0  0  0  0  0  0
  -35.7633  -45.8492   18.7031 H   0  0  0  0  0  0  0  0  0  0  0  0
  -37.5271  -43.5785   15.4850 H   0  0  0  0  0  0  0  0  0  0  0  0
  -39.1382  -44.8833   15.8362 H   0  0  0  0  0  0  0  0  0  0  0  0
  -41.3595  -45.2460   16.8218 H   0  0  0  0  0  0  0  0  0  0  0  0
  -37.3680  -45.0303   19.7543 H   0  0  0  0  0  0  0  0  0  0  0  0
  -41.2514  -45.8035   22.6256 H   0  0  0  0  0  0  0  0  0  0  0  0
  -41.4736  -44.3332   21.6868 H   0  0  0  0  0  0  0  0  0  0  0  0
  -44.1766  -46.3502   20.3219 H   0  0  0  0  0  0  0  0  0  0  0  0
  -43.7121  -44.7765   20.9963 H   0  0  0  0  0  0  0  0  0  0  0  0
  -43.6877  -46.2235   22.0227 H   0  0  0  0  0  0  0  0  0  0  0  0
  -42.5161  -48.0636   19.8496 H   0  0  0  0  0  0  0  0  0  0  0  0
  -42.0309  -48.0447   21.5559 H   0  0  0  0  0  0  0  0  0  0  0  0
  -40.8119  -47.8313   20.2846 H   0  0  0  0  0  0  0  0  0  0  0  0
  -37.5171  -44.0627   24.6599 H   0  0  0  0  0  0  0  0  0  0  0  0
  -36.0945  -44.7174   23.7801 H   0  0  0  0  0  0  0  0  0  0  0  0
  -36.8515  -43.1788   23.2450 H   0  0  0  0  0  0  0  0  0  0  0  0
  -39.1602  -47.5668   21.4033 H   0  0  0  0  0  0  0  0  0  0  0  0
  -36.5059  -46.8927   23.8758 H   0  0  0  0  0  0  0  0  0  0  0  0
  -37.3295  -48.1701   23.0082 H   0  0  0  0  0  0  0  0  0  0  0  0
  1  2  2  0
  1  3  1  0
  2  4  1  0
  3  5  2  0
  4  9  2  0
  5  9  1  0
  6  7  2  0
  6 10  1  0
  7 12  1  0
  8 10  2  0
  8 11  1  0
  9 10  1  0
 11 12  2  0
 11 16  1  0
 12 25  1  0
 13 16  1  0
 13 21  1  0
 13 24  2  0
 14 21  1  0
 14 22  1  0
 14 23  2  0
 15 16  1  0
 15 17  1  0
 16 22  1  1
 17 18  1  0
 17 19  1  0
 17 25  1  0
 20 21  1  0
  1 26  1  0
  2 27  1  0
  3 28  1  0
  4 29  1  0
  5 30  1  0
  6 31  1  0
  7 32  1  0
  8 33  1  0
 15 34  1  0
 15 35  1  0
 18 36  1  0
 18 37  1  0
 18 38  1  0
 19 39  1  0
 19 40  1  0
 19 41  1  0
 20 42  1  0
 20 43  1  0
 20 44  1  0
 22 45  1  0
 23 46  1  0
 23 47  1  0
M  CHG  1  23   1
M  END
