@<TRIPOS>MOLECULE
lig_32
 46 49 0 0 0
SMALL
GASTEIGER

@<TRIPOS>ATOM
      1 C         -34.3135  -45.2077   17.1876 C.ar    1  UNL1       -0.0583
      2 C         -34.1973  -44.2951   16.1500 C.ar    1  UNL1       -0.0436
      3 C         -39.1764  -45.0011   16.9541 C.ar    1  UNL1       -0.0491
      4 C         -40.4542  -45.1821   17.4918 C.ar    1  UNL1       -0.0189
      5 C         -35.5656  -45.4789   17.7323 C.ar    1  UNL1       -0.0357
      6 C         -38.2381  -45.1951   19.1528 C.ar    1  UNL1       -0.0420
      7 C         -35.3543  -43.6914   15.6932 C.ar    1  UNL1        0.0283
      8 C         -38.0382  -45.0149   17.7732 C.ar    1  UNL1        0.0009
      9 C         -39.5193  -45.3544   19.7145 C.ar    1  UNL1        0.0431
     10 C         -40.6249  -45.3728   18.8641 C.ar    1  UNL1        0.1284
     11 C         -36.6860  -44.8194   17.2216 C.ar    1  UNL1        0.0710
     12 C         -38.8939  -44.3714   21.9499 C.2     1  UNL1        0.3202
     13 C         -37.9558  -46.3933   22.5507 C.2     1  UNL1        0.3369
     14 C         -41.1544  -45.4253   21.6300 C.3     1  UNL1        0.0359
     15 C         -39.6895  -45.4757   21.2056 C.3     1  UNL1        0.2027
     16 C         -42.0923  -46.0925   20.6093 C.3     1  UNL1        0.1092
     17 C         -43.5439  -45.7704   21.0003 C.3     1  UNL1       -0.0251
     18 C         -41.9410  -47.6194   20.5506 C.3     1  UNL1       -0.0251
     19 C         -36.8680  -44.2891   23.4685 C.3     1  UNL1        0.0572
     20 N         -36.5864  -43.9319   16.1983 N.ar    1  UNL1       -0.2550
     21 N         -37.8638  -45.0312   22.7065 N.am    1  UNL1       -0.1646
     22 N         -39.0139  -46.7075   21.6935 N.pl3   1  UNL1       -0.2211
     23 N         -37.1447  -47.3366   23.1280 N.2     1  UNL1       -0.2947
     24 O         -39.0749  -43.1663   21.8840 O.2     1  UNL1       -0.2528
     25 O         -41.9143  -45.5454   19.2901 O.3     1  UNL1       -0.4857
     26 H         -33.4324  -45.7079   17.5781 H       1  UNL1        0.0619
     27 H         -33.2326  -44.0649   15.7136 H       1  UNL1        0.0633
     28 H         -39.0846  -44.8594   15.8793 H       1  UNL1        0.0625
     29 H         -41.3151  -45.1774   16.8279 H       1  UNL1        0.0654
     30 H         -35.6446  -46.1977   18.5425 H       1  UNL1        0.0639
     31 H         -37.3767  -45.1829   19.8192 H       1  UNL1        0.0629
     32 H         -35.3216  -42.9701   14.8835 H       1  UNL1        0.0830
     33 H         -41.2830  -45.8704   22.6252 H       1  UNL1        0.0347
     34 H         -41.4515  -44.3711   21.7241 H       1  UNL1        0.0347
     35 H         -44.2483  -46.1902   20.2729 H       1  UNL1        0.0268
     36 H         -43.7158  -44.6876   21.0018 H       1  UNL1        0.0268
     37 H         -43.7926  -46.1628   21.9919 H       1  UNL1        0.0268
     38 H         -42.6909  -48.0552   19.8797 H       1  UNL1        0.0268
     39 H         -42.0619  -48.0718   21.5404 H       1  UNL1        0.0268
     40 H         -40.9725  -47.9242   20.1444 H       1  UNL1        0.0268
     41 H         -37.3730  -43.6990   24.2373 H       1  UNL1        0.0602
     42 H         -36.1567  -44.9674   23.9434 H       1  UNL1        0.0602
     43 H         -36.3255  -43.6246   22.7896 H       1  UNL1        0.0602
     44 H         -39.2564  -47.6658   21.4559 H       1  UNL1        0.2457
     45 H         -36.3797  -47.0817   23.7462 H       1  UNL1        0.2542
     46 H         -37.2893  -48.3276   22.9503 H       1  UNL1        0.2542
@<TRIPOS>UNITY_ATOM_ATTR
23 1
charge 1
@<TRIPOS>BOND
     1     1     2   ar
     2     1     5   ar
     3     2     7   ar
     4     3     4   ar
     5     3     8   ar
     6     4    10   ar
     7     5    11   ar
     8     6     8   ar
     9     6     9   ar
    10     7    20   ar
    11     8    11    1
    12     9    10   ar
    13     9    15    1
    14    10    25    1
    15    11    20   ar
    16    12    15    1
    17    12    21   am
    18    12    24    2
    19    13    21    1
    20    13    22    1
    21    13    23    2
    22    14    15    1
    23    14    16    1
    24    15    22    1
    25    16    17    1
    26    16    18    1
    27    16    25    1
    28    19    21    1
    29     1    26    1
    30     2    27    1
    31     3    28    1
    32     4    29    1
    33     5    30    1
    34     6    31    1
    35     7    32    1
    36    14    33    1
    37    14    34    1
    38    17    35    1
    39    17    36    1
    40    17    37    1
    41    18    38    1
    42    18    39    1
    43    18    40    1
    44    19    41    1
    45    19    42    1
    46    19    43    1
    47    22    44    1
    48    23    45    1
    49    23    46    1
