lig_04
  xed2sdf           3D
 
 45 48  0  0  1  0  0  0  0  0999 V2000
  -40.0363  -44.8793   17.4541 C   0  0  0  0  0  0  0  0  0  0  0  0
  -38.7502  -44.8250   16.9768 C   0  0  0  0  0  0  0  0  0  0  0  0
  -40.2737  -45.2493   18.7573 C   0  0  0  0  0  0  0  0  0  0  0  0
  -39.2584  -43.5632   21.9820 C   0  0  0  0  0  0  0  0  0  0  0  0
  -37.9433  -45.5112   19.1015 C   0  0  0  0  0  0  0  0  0  0  0  0
  -35.2928  -45.8204   17.8776 C   0  0  0  0  0  0  0  0  0  0  0  0
  -38.5167  -43.0387   23.0471 C   0  0  0  0  0  0  0  0  0  0  0  0
  -35.9632  -44.3224   16.1869 C   0  0  0  0  0  0  0  0  0  0  0  0
  -33.7811  -44.9726   16.2732 C   0  0  0  0  0  0  0  0  0  0  0  0
  -37.6740  -45.1419   17.7913 C   0  0  0  0  0  0  0  0  0  0  0  0
  -36.3046  -45.0936   17.2855 C   0  0  0  0  0  0  0  0  0  0  0  0
  -39.2284  -45.5697   19.5988 C   0  0  0  0  0  0  0  0  0  0  0  0
  -34.0160  -45.7736   17.3764 C   0  0  0  0  0  0  0  0  0  0  0  0
  -38.9660  -44.8704   21.9851 C   0  0  0  0  0  0  0  0  0  0  0  0
  -37.9532  -47.5098   22.3061 C   0  0  0  0  0  0  0  0  0  0  0  0
  -37.5486  -46.4681   23.3282 C   0  0  0  0  0  0  0  0  0  0  0  0
  -39.4698  -45.9727   21.0610 C   0  0  0  0  0  0  0  0  0  0  0  0
  -40.9410  -46.2833   21.4055 C   0  0  0  0  0  0  0  0  0  0  0  0
  -31.7550  -46.5686   17.3615 C   0  0  0  0  0  0  0  0  0  0  0  0
  -34.7273  -44.2377   15.6613 N   0  0  0  0  0  0  0  0  0  0  0  0
  -37.8431  -44.0024   23.6207 N   0  0  0  0  0  0  0  0  0  0  0  0
  -38.1022  -45.1645   22.9794 N   0  0  0  0  0  0  0  0  0  0  0  0
  -38.8095  -47.2645   21.2996 N   0  3  0  0  0  0  0  0  0  0  0  0
  -37.3799  -48.7022   22.4882 N   0  0  0  0  0  0  0  0  0  0  0  0
  -33.0605  -46.5032   17.9700 O   0  0  0  0  0  0  0  0  0  0  0  0
  -40.8018  -44.6502   16.8530 H   0  0  0  0  0  0  0  0  0  0  0  0
  -38.5949  -44.5595   16.0267 H   0  0  0  0  0  0  0  0  0  0  0  0
  -41.2132  -45.2857   19.0967 H   0  0  0  0  0  0  0  0  0  0  0  0
  -39.8684  -43.0728   21.3595 H   0  0  0  0  0  0  0  0  0  0  0  0
  -37.1849  -45.7382   19.7104 H   0  0  0  0  0  0  0  0  0  0  0  0
  -35.4893  -46.3945   18.6715 H   0  0  0  0  0  0  0  0  0  0  0  0
  -38.5042  -42.0784   23.3261 H   0  0  0  0  0  0  0  0  0  0  0  0
  -36.6825  -43.7837   15.7513 H   0  0  0  0  0  0  0  0  0  0  0  0
  -32.8530  -44.9357   15.9042 H   0  0  0  0  0  0  0  0  0  0  0  0
  -36.3514  -46.3945   23.3641 H   0  0  0  0  0  0  0  0  0  0  0  0
  -37.9572  -46.7945   24.4083 H   0  0  0  0  0  0  0  0  0  0  0  0
  -41.6048  -45.2889   21.3021 H   0  0  0  0  0  0  0  0  0  0  0  0
  -41.0093  -46.6897   22.5325 H   0  0  0  0  0  0  0  0  0  0  0  0
  -41.3537  -47.1217   20.6528 H   0  0  0  0  0  0  0  0  0  0  0  0
  -31.0694  -47.3257   17.9915 H   0  0  0  0  0  0  0  0  0  0  0  0
  -31.2474  -45.4812   17.3650 H   0  0  0  0  0  0  0  0  0  0  0  0
  -31.8489  -46.9702   16.2339 H   0  0  0  0  0  0  0  0  0  0  0  0
  -39.0218  -48.0163   20.6743 H   0  0  0  0  0  0  0  0  0  0  0  0
  -36.7454  -48.8456   23.2487 H   0  0  0  0  0  0  0  0  0  0  0  0
  -37.5825  -49.4571   21.8645 H   0  0  0  0  0  0  0  0  0  0  0  0
  1  2  2  0
  1  3  1  0
  2 10  1  0
  3 12  2  0
  4  7  1  0
  4 14  2  0
  5 10  2  0
  5 12  1  0
  6 11  2  0
  6 13  1  0
  7 21  2  0
  8 11  1  0
  8 20  2  0
  9 13  2  0
  9 20  1  0
 10 11  1  0
 12 17  1  0
 13 25  1  0
 14 17  1  0
 14 22  1  0
 15 16  1  0
 15 23  2  0
 15 24  1  0
 16 22  1  0
 17 18  1  0
 17 23  1  0
 19 25  1  0
 21 22  1  0
  1 26  1  0
  2 27  1  0
  3 28  1  0
  4 29  1  0
  5 30  1  0
  6 31  1  0
  7 32  1  0
  8 33  1  0
  9 34  1  0
 16 35  1  0
 16 36  1  0
 18 37  1  0
 18 38  1  0
 18 39  1  0
 19 40  1  0
 19 41  1  0
 19 42  1  0
 23 43  1  0
 24 44  1  0
 24 45  1  0
M  CHG  1  23   1
M  END
>  <Alignment>
1

>  <Alns>
1

>  <Conformer>
1

>  <Confs>
1

>  <Excl Vol Pen>
0

>  <FScore>
-127.311

>  <FScore+P>
-126.652

>  <FSim>
0.894

>  <Field Penalty>
0

>  <Filename>
lig_04_biphenyl.sdf

>  <Ref>
lig_06

>  <SScore>
207.2

>  <SScore+P>
205.224

>  <SSim>
0.912

>  <Sim>
0.903

>  <_cresset_fieldpoints2>
 2
    -5     -36.705936     -43.833466      25.045113    -11.9117
    -5     -32.889500     -46.767467      20.115805     -3.7543
    -5     -34.350647     -43.095108      14.172133    -10.4530
    -6     -43.203793     -45.634415      19.436907      4.3864
    -6     -38.341656     -43.264221      14.478975      3.9705
    -6     -42.040176     -43.304512      20.326862      3.7947
    -6     -30.934734     -45.039394      15.065193      4.2878
    -6     -35.816196     -48.356056      24.849306      7.9714
    -6     -38.682411     -49.866154      20.316345     11.1451
    -6     -36.384979     -50.829659      22.792383      8.0004
    -7     -43.509590     -46.002766      19.348555     -1.5332
    -7     -38.331589     -43.542568      13.851767     -1.3939
    -7     -42.056061     -42.976048      20.210495     -2.1709
    -7     -38.290855     -42.148804      19.157303     -2.8548
    -7     -38.755135     -48.485535      18.049755     -2.4525
    -7     -32.369869     -43.993767      19.522324     -1.5861
    -7     -35.786308     -48.087551      25.556721     -0.9780
    -7     -40.223743     -49.250225      22.668266     -2.2398
    -7     -34.146557     -48.493431      15.650028     -1.6406
    -7     -30.723082     -44.984955      14.649162     -1.2345
    -7     -35.694244     -44.651535      21.263439     -3.3431
    -7     -36.461849     -48.255615      19.886999     -3.2395
    -7     -40.355732     -45.550697      24.836933     -2.2671
    -7     -35.642715     -47.554226      20.696049     -3.1356
    -8     -38.977943     -45.191875      18.283283      7.2125
    -8     -40.216969     -45.626141      20.212521      5.6306
    -8     -39.243851     -43.662518      21.955765      4.0482
    -8     -37.301109     -44.765682      16.934725      5.6471
    -8     -35.217793     -45.265247      17.138367      5.4397
    -8     -32.787624     -45.671654      16.633532      3.2722
    -8     -36.759705     -45.490040      18.197052      5.7194
    -8     -37.338226     -47.129501      23.444786      2.7669
    -8     -31.035078     -46.542488      16.935692      2.4915

$$$$
intermediate_02_biphenyl_11_spirocycles
xed2sdf           3D
 
 39 41  0  0  1  0  0  0  0  0999 V2000
  -40.9510  -47.0933   20.9930 C   0  0  0  0  0  0  0  0  0  0  0  0
  -39.7392  -46.1383   20.9233 C   0  0  0  0  0  0  0  0  0  0  0  0
  -39.3822  -45.6954   19.4921 C   0  0  0  0  0  0  0  0  0  0  0  0
  -38.0570  -45.6201   19.1188 C   0  0  0  0  0  0  0  0  0  0  0  0
  -37.6585  -45.2084   17.8545 C   0  0  0  0  0  0  0  0  0  0  0  0
  -36.2463  -45.1278   17.4932 C   0  0  0  0  0  0  0  0  0  0  0  0
  -35.8176  -44.2992   16.4655 C   0  0  0  0  0  0  0  0  0  0  0  0
  -34.4890  -44.2167   16.1248 C   0  0  0  0  0  0  0  0  0  0  0  0
  -33.5553  -44.9641   16.8041 C   0  0  0  0  0  0  0  0  0  0  0  0
  -33.9582  -45.7927   17.8256 C   0  0  0  0  0  0  0  0  0  0  0  0
  -35.2874  -45.8721   18.1659 C   0  0  0  0  0  0  0  0  0  0  0  0
  -38.6479  -44.8690   16.9451 C   0  0  0  0  0  0  0  0  0  0  0  0
  -39.9727  -44.9346   17.2927 C   0  0  0  0  0  0  0  0  0  0  0  0
  -40.3400  -45.3397   18.5569 C   0  0  0  0  0  0  0  0  0  0  0  0
  -41.6429  -45.3764   18.8623 F   0  0  0  0  0  0  0  0  0  0  0  0
  -40.0950  -44.9445   21.8422 C   0  0  0  0  0  0  0  0  0  0  0  0
  -38.8982  -44.0099   22.0777 C   0  0  0  0  0  0  0  0  0  0  0  0
  -37.6443  -44.9406   22.9830 S   0  0  0  0  0  0  0  0  0  0  0  0
  -37.7286  -46.5788   22.3529 C   0  0  0  0  0  0  0  0  0  0  0  0
  -36.7635  -47.3633   22.8424 N   0  0  0  0  0  0  0  0  0  0  0  0
  -38.6724  -46.9827   21.4818 N   0  3  0  0  0  0  0  0  0  0  0  0
  -41.9880  -46.5010   20.8783 H   0  0  0  0  0  0  0  0  0  0  0  0
  -40.9472  -47.6343   22.0641 H   0  0  0  0  0  0  0  0  0  0  0  0
  -40.8616  -47.9269   20.1343 H   0  0  0  0  0  0  0  0  0  0  0  0
  -37.3600  -45.8642   19.7912 H   0  0  0  0  0  0  0  0  0  0  0  0
  -36.4814  -43.7457   15.9652 H   0  0  0  0  0  0  0  0  0  0  0  0
  -34.2009  -43.6118   15.3826 H   0  0  0  0  0  0  0  0  0  0  0  0
  -32.5882  -44.9053   16.5567 H   0  0  0  0  0  0  0  0  0  0  0  0
  -33.2830  -46.3386   18.3214 H   0  0  0  0  0  0  0  0  0  0  0  0
  -35.5629  -46.4817   18.9075 H   0  0  0  0  0  0  0  0  0  0  0  0
  -38.3994  -44.5750   16.0235 H   0  0  0  0  0  0  0  0  0  0  0  0
  -40.6752  -44.6849   16.6263 H   0  0  0  0  0  0  0  0  0  0  0  0
  -40.9814  -44.3165   21.3324 H   0  0  0  0  0  0  0  0  0  0  0  0
  -40.4690  -45.3541   22.9068 H   0  0  0  0  0  0  0  0  0  0  0  0
  -39.2406  -43.0593   22.7252 H   0  0  0  0  0  0  0  0  0  0  0  0
  -38.4524  -43.6394   21.0272 H   0  0  0  0  0  0  0  0  0  0  0  0
  -36.0980  -46.9947   23.4918 H   0  0  0  0  0  0  0  0  0  0  0  0
  -36.7055  -48.3212   22.5608 H   0  0  0  0  0  0  0  0  0  0  0  0
  -38.6297  -47.9342   21.1747 H   0  0  0  0  0  0  0  0  0  0  0  0
  2  1  1  0
  2  3  1  0
  2 16  1  0
  3  4  2  0
  4  5  1  0
  5  6  1  0
  5 12  2  0
  6  7  2  0
  7  8  1  0
  8  9  2  0
  9 10  1  0
 10 11  2  0
 11  6  1  0
 12 13  1  0
 13 14  2  0
 14  3  1  0
 14 15  1  0
 16 17  1  0
 17 18  1  0
 18 19  1  0
 19 20  1  0
 19 21  2  0
 21  2  1  0
  1 22  1  0
  1 23  1  0
  1 24  1  0
  4 25  1  0
  7 26  1  0
  8 27  1  0
  9 28  1  0
 10 29  1  0
 11 30  1  0
 12 31  1  0
 13 32  1  0
 16 33  1  0
 16 34  1  0
 17 35  1  0
 17 36  1  0
 20 37  1  0
 20 38  1  0
 21 39  1  0
M  CHG  1  21   1
M  END
>  <Alignment>
1

>  <Alns>
1

>  <Conformer>
1

>  <Confs>
1

>  <Excl Vol Pen>
0

>  <FScore>
-89.307

>  <FScore+P>
-85.813

>  <FSim>
0.781

>  <Field Penalty>
0

>  <Filename>
intermediate_bace_combination_02_biphenyl~11_spirocycles.sdf

>  <Ref>
lig_02

>  <SScore>
187.759

>  <SScore+P>
177.276

>  <SSim>
0.914

>  <Sim>
0.848

>  <_cresset_fieldpoints2>
 2
    -5     -39.094437     -47.398445      24.118176     -4.3419
    -5     -44.114136     -44.860878      17.624756     -1.2143
    -5     -35.377144     -47.202297      15.355723     -3.7624
    -5     -34.857101     -42.977402      19.136801     -4.1876
    -6     -42.927795     -45.337116      22.893572      2.1645
    -6     -37.942051     -43.225742      14.509739      4.5110
    -6     -32.438843     -42.968822      14.304252      2.3752
    -6     -35.078640     -48.906422      23.523247      7.5189
    -6     -37.584618     -49.532558      21.309652     10.8855
    -6     -40.627159     -41.990330      20.724518      2.3146
    -7     -38.804119     -48.760273      18.595306     -2.6118
    -7     -36.489853     -48.335728      20.039995     -3.0386
    -7     -39.007900     -42.193699      19.093859     -2.9051
    -7     -35.985935     -43.216293      20.197353     -3.1511
    -7     -36.810677     -47.434235      15.279388     -2.1017
    -7     -31.618555     -43.303455      14.557405     -0.9695
    -7     -34.872822     -46.488312      21.258038     -2.7792
    -7     -30.602741     -46.313610      17.811092     -0.9700
    -7     -40.547443     -43.796162      25.021061     -1.5098
    -7     -43.466076     -44.605007      21.676949     -1.6433
    -7     -39.627365     -47.719948      24.192034     -2.4489
    -8     -39.009701     -45.275352      18.221426      7.2539
    -8     -40.478283     -45.839622      19.891382      6.0083
    -8     -38.765762     -44.987568      22.223595      5.8001
    -8     -34.901608     -45.046104      17.148764      7.1894
    -8     -37.143349     -44.773270      17.023890      5.7775
    -8     -36.769703     -45.555553      18.331057      5.7765
    -8     -39.498203     -45.002861      20.858381      5.4872

$$$$
intermediate_02_biphenyl_32_spirocycles
  xed2sdf           3D
 
 39 41  0  0  1  0  0  0  0  0999 V2000
  -40.9530  -47.0862   20.9980 C   0  0  0  0  0  0  0  0  0  0  0  0
  -39.7387  -46.1347   20.9237 C   0  0  0  0  0  0  0  0  0  0  0  0
  -39.3811  -45.6960   19.4914 C   0  0  0  0  0  0  0  0  0  0  0  0
  -38.0555  -45.6201   19.1186 C   0  0  0  0  0  0  0  0  0  0  0  0
  -37.6575  -45.2103   17.8535 C   0  0  0  0  0  0  0  0  0  0  0  0
  -36.2459  -45.1275   17.4914 C   0  0  0  0  0  0  0  0  0  0  0  0
  -35.8182  -44.2897   16.4708 C   0  0  0  0  0  0  0  0  0  0  0  0
  -34.4899  -44.2047   16.1298 C   0  0  0  0  0  0  0  0  0  0  0  0
  -33.5563  -44.9593   16.8013 C   0  0  0  0  0  0  0  0  0  0  0  0
  -33.9587  -45.7974   17.8154 C   0  0  0  0  0  0  0  0  0  0  0  0
  -35.2874  -45.8791   18.1565 C   0  0  0  0  0  0  0  0  0  0  0  0
  -38.6467  -44.8746   16.9427 C   0  0  0  0  0  0  0  0  0  0  0  0
  -39.9716  -44.9416   17.2894 C   0  0  0  0  0  0  0  0  0  0  0  0
  -40.3389  -45.3441   18.5545 C   0  0  0  0  0  0  0  0  0  0  0  0
  -41.6419  -45.3817   18.8588 F   0  0  0  0  0  0  0  0  0  0  0  0
  -40.0903  -44.9371   21.8397 C   0  0  0  0  0  0  0  0  0  0  0  0
  -38.8896  -44.0081   22.0774 C   0  0  0  0  0  0  0  0  0  0  0  0
  -37.6460  -44.9440   22.9908 S   0  0  0  0  0  0  0  0  0  0  0  0
  -37.7333  -46.5812   22.3590 C   0  0  0  0  0  0  0  0  0  0  0  0
  -36.7724  -47.3684   22.8521 N   0  0  0  0  0  0  0  0  0  0  0  0
  -38.6742  -46.9817   21.4833 N   0  3  0  0  0  0  0  0  0  0  0  0
  -41.9885  -46.4914   20.8831 H   0  0  0  0  0  0  0  0  0  0  0  0
  -40.9497  -47.6235   22.0711 H   0  0  0  0  0  0  0  0  0  0  0  0
  -40.8674  -47.9229   20.1419 H   0  0  0  0  0  0  0  0  0  0  0  0
  -37.3582  -45.8618   19.7917 H   0  0  0  0  0  0  0  0  0  0  0  0
  -36.4825  -43.7314   15.9763 H   0  0  0  0  0  0  0  0  0  0  0  0
  -34.2019  -43.5930   15.3930 H   0  0  0  0  0  0  0  0  0  0  0  0
  -32.5894  -44.8989   16.5534 H   0  0  0  0  0  0  0  0  0  0  0  0
  -33.2831  -46.3483   18.3053 H   0  0  0  0  0  0  0  0  0  0  0  0
  -35.5632  -46.4952   18.8927 H   0  0  0  0  0  0  0  0  0  0  0  0
  -38.3977  -44.5827   16.0207 H   0  0  0  0  0  0  0  0  0  0  0  0
  -40.6740  -44.6947   16.6219 H   0  0  0  0  0  0  0  0  0  0  0  0
  -40.9724  -44.3054   21.3273 H   0  0  0  0  0  0  0  0  0  0  0  0
  -40.4685  -45.3425   22.9043 H   0  0  0  0  0  0  0  0  0  0  0  0
  -39.2283  -43.0542   22.7219 H   0  0  0  0  0  0  0  0  0  0  0  0
  -38.4361  -43.6429   21.0283 H   0  0  0  0  0  0  0  0  0  0  0  0
  -36.1082  -47.0016   23.5039 H   0  0  0  0  0  0  0  0  0  0  0  0
  -36.7161  -48.3264   22.5709 H   0  0  0  0  0  0  0  0  0  0  0  0
  -38.6316  -47.9325   21.1738 H   0  0  0  0  0  0  0  0  0  0  0  0
  2  1  1  0
  2  3  1  0
  2 16  1  0
  3  4  2  0
  4  5  1  0
  5  6  1  0
  5 12  2  0
  6  7  2  0
  7  8  1  0
  8  9  2  0
  9 10  1  0
 10 11  2  0
 11  6  1  0
 12 13  1  0
 13 14  2  0
 14  3  1  0
 14 15  1  0
 16 17  1  0
 17 18  1  0
 18 19  1  0
 19 20  1  0
 19 21  2  0
 21  2  1  0
  1 22  1  0
  1 23  1  0
  1 24  1  0
  4 25  1  0
  7 26  1  0
  8 27  1  0
  9 28  1  0
 10 29  1  0
 11 30  1  0
 12 31  1  0
 13 32  1  0
 16 33  1  0
 16 34  1  0
 17 35  1  0
 17 36  1  0
 20 37  1  0
 20 38  1  0
 21 39  1  0
M  CHG  1  21   1
M  END
>  <Alignment>
1

>  <Alns>
1

>  <Conformer>
1

>  <Confs>
1

>  <Excl Vol Pen>
0

>  <FScore>
-90.349

>  <FScore+P>
-86.991

>  <FSim>
0.801

>  <Field Penalty>
0

>  <Filename>
intermediate_bace_combination_02_biphenyl~32_spirocycles.sdf

>  <Ref>
lig_02

>  <SScore>
187.957

>  <SScore+P>
177.881

>  <SSim>
0.917

>  <Sim>
0.859

>  <_cresset_fieldpoints2>
 2
    -5     -44.108986     -44.865814      17.611015     -1.2157
    -5     -39.104580     -47.399296      24.119999     -4.3457
    -5     -35.374039     -47.180138      15.331588     -3.7590
    -5     -34.856995     -42.988838      19.151266     -4.1822
    -6     -42.929756     -45.300167      22.881187      2.1614
    -6     -37.944859     -43.221317      14.514530      4.4960
    -6     -37.594353     -49.535282      21.315804     10.8793
    -6     -35.093540     -48.915401      23.542027      7.5138
    -6     -40.618614     -41.974522      20.746319      2.3122
    -7     -39.637821     -47.715366      24.199776     -2.4405
    -7     -43.458759     -44.585316      21.666185     -1.6450
    -7     -36.480415     -48.328800      20.057627     -3.0382
    -7     -35.970840     -43.230949      20.203728     -3.1540
    -7     -36.793869     -47.405251      15.245539     -2.1038
    -7     -31.621943     -43.294720      14.558311     -0.9695
    -7     -30.595600     -46.269173      17.835394     -0.9700
    -7     -34.895454     -46.505413      21.249432     -2.7973
    -7     -38.815338     -48.759727      18.591101     -2.6122
    -7     -39.042995     -42.200378      19.105370     -2.9159
    -7     -40.552280     -43.771503      25.010796     -1.5099
    -8     -40.476921     -45.838528      19.891321      6.0063
    -8     -39.008316     -45.277054      18.215925      7.2537
    -8     -39.497391     -45.000713      20.850199      5.4829
    -8     -38.764355     -44.984592      22.231424      5.8018
    -8     -34.904465     -45.042515      17.146402      7.1895
    -8     -37.142159     -44.771603      17.024597      5.7787
    -8     -36.768940     -45.557072      18.327892      5.7743

$$$$
intermediate_02_biphenyl_74_amide_series
  xed2sdf           3D
 
 33 35  0  0  1  0  0  0  0  0999 V2000
  -41.1994  -46.8662   20.8066 C   0  0  0  0  0  0  0  0  0  0  0  0
  -39.9817  -45.9312   20.9618 C   0  0  0  0  0  0  0  0  0  0  0  0
  -39.3807  -45.5225   19.6049 C   0  0  0  0  0  0  0  0  0  0  0  0
  -38.0395  -45.7235   19.3546 C   0  0  0  0  0  0  0  0  0  0  0  0
  -37.4659  -45.3626   18.1483 C   0  0  0  0  0  0  0  0  0  0  0  0
  -36.1056  -45.5818   17.9218 N   0  0  0  0  0  0  0  0  0  0  0  0
  -38.2495  -44.7849   17.1680 C   0  0  0  0  0  0  0  0  0  0  0  0
  -39.5855  -44.5746   17.4011 C   0  0  0  0  0  0  0  0  0  0  0  0
  -40.1456  -44.9392   18.6070 C   0  0  0  0  0  0  0  0  0  0  0  0
  -41.4524  -44.7160   18.7971 F   0  0  0  0  0  0  0  0  0  0  0  0
  -40.4509  -44.6920   21.7764 C   0  0  0  0  0  0  0  0  0  0  0  0
  -39.2801  -44.1408   22.4573 N   0  0  0  0  0  0  0  0  0  0  0  0
  -39.1008  -42.9018   22.8512 N   0  0  0  0  0  0  0  0  0  0  0  0
  -37.9116  -42.7418   23.4963 N   0  0  0  0  0  0  0  0  0  0  0  0
  -37.3062  -43.8992   23.5326 C   0  0  0  0  0  0  0  0  0  0  0  0
  -38.1811  -44.7849   22.8704 C   0  0  0  0  0  0  0  0  0  0  0  0
  -38.1068  -46.2310   22.5692 C   0  0  0  0  0  0  0  0  0  0  0  0
  -37.1589  -46.9793   23.1568 N   0  0  0  0  0  0  0  0  0  0  0  0
  -39.0148  -46.7540   21.7175 N   0  3  0  0  0  0  0  0  0  0  0  0
  -42.1692  -46.2633   20.4401 H   0  0  0  0  0  0  0  0  0  0  0  0
  -40.9434  -47.7389   20.0233 H   0  0  0  0  0  0  0  0  0  0  0  0
  -41.4378  -47.3602   21.8739 H   0  0  0  0  0  0  0  0  0  0  0  0
  -37.4685  -46.1412   20.0614 H   0  0  0  0  0  0  0  0  0  0  0  0
  -35.5934  -45.7610   18.6156 H   0  0  0  0  0  0  0  0  0  0  0  0
  -35.7305  -45.1817   17.2325 H   0  0  0  0  0  0  0  0  0  0  0  0
  -37.8450  -44.5206   16.2925 H   0  0  0  0  0  0  0  0  0  0  0  0
  -40.1549  -44.1552   16.6941 H   0  0  0  0  0  0  0  0  0  0  0  0
  -41.2363  -45.0272   22.6202 H   0  0  0  0  0  0  0  0  0  0  0  0
  -40.9545  -43.8582   21.0762 H   0  0  0  0  0  0  0  0  0  0  0  0
  -36.4176  -44.1102   23.9398 H   0  0  0  0  0  0  0  0  0  0  0  0
  -36.5018  -46.5600   23.7846 H   0  0  0  0  0  0  0  0  0  0  0  0
  -37.1067  -47.9601   22.9690 H   0  0  0  0  0  0  0  0  0  0  0  0
  -39.0009  -47.7418   21.5577 H   0  0  0  0  0  0  0  0  0  0  0  0
  2  1  1  0
  2  3  1  0
  2 11  1  0
  3  4  2  0
  4  5  1  0
  5  6  1  0
  5  7  2  0
  7  8  1  0
  8  9  2  0
  9  3  1  0
  9 10  1  0
 11 12  1  0
 12 13  1  0
 13 14  2  0
 14 15  1  0
 15 16  2  0
 16 12  1  0
 16 17  1  0
 17 18  1  0
 17 19  2  0
 19  2  1  0
  1 20  1  0
  1 21  1  0
  1 22  1  0
  4 23  1  0
  6 24  1  0
  6 25  1  0
  7 26  1  0
  8 27  1  0
 11 28  1  0
 11 29  1  0
 15 30  1  0
 18 31  1  0
 18 32  1  0
 19 33  1  0
M  CHG  1  19   1
M  END
>  <Alignment>
1

>  <Alns>
1

>  <Conformer>
1

>  <Confs>
1

>  <Excl Vol Pen>
0

>  <FScore>
-107.607

>  <FScore+P>
-105.75

>  <FSim>
0.758

>  <Field Penalty>
0

>  <Filename>
intermediate_bace_combination_02_biphenyl~74_amide_series.sdf

>  <Ref>
lig_74

>  <SScore>
158.53

>  <SScore+P>
152.959

>  <SSim>
0.776

>  <Sim>
0.767

>  <_cresset_fieldpoints2>
 2
    -5     -36.327950     -47.456791      17.088501     -4.3407
    -5     -38.817844     -41.182251      23.303051    -24.5795
    -6     -34.905014     -45.634781      24.293791      9.9651
    -6     -35.452408     -48.295616      23.982792     10.7995
    -6     -35.169910     -44.382793      15.585527      8.1075
    -6     -35.280857     -46.545864      20.333513     10.6284
    -6     -37.884563     -49.275539      21.815937     15.4993
    -7     -39.839947     -48.166328      17.645462     -2.3780
    -7     -43.638439     -44.329788      21.294073     -1.6997
    -7     -35.367317     -46.072701      21.315601     -2.6234
    -7     -40.323322     -47.158451      24.185129     -2.4395
    -7     -38.772907     -48.874737      19.203487     -2.2082
    -7     -36.696617     -48.380234      20.534903     -2.2069
    -7     -39.289783     -43.277657      14.298151     -0.9976
    -7     -38.489902     -42.443573      20.423958     -3.3759
    -7     -40.565079     -43.162193      24.683102     -1.7765
    -8     -38.850697     -45.144207      18.390240      7.0860
    -8     -40.503262     -45.435936      19.869780      5.9497
    -8     -37.321014     -45.046989      23.204987      3.2815

$$$$
intermediate_03_biphenyl_16_spirocycles
  xed2sdf           3D
 
 47 50  0  0  1  0  0  0  0  0999 V2000
  -31.8659  -44.6661   16.2747 C   0  0  0  0  0  0  0  0  0  0  0  0
  -33.0327  -44.1570   15.5968 O   0  0  0  0  0  0  0  0  0  0  0  0
  -34.2380  -44.3644   16.1412 C   0  0  0  0  0  0  0  0  0  0  0  0
  -34.4140  -45.0224   17.3483 C   0  0  0  0  0  0  0  0  0  0  0  0
  -35.6706  -45.2068   17.8673 C   0  0  0  0  0  0  0  0  0  0  0  0
  -36.7974  -44.7471   17.2010 C   0  0  0  0  0  0  0  0  0  0  0  0
  -38.1304  -44.9455   17.7567 C   0  0  0  0  0  0  0  0  0  0  0  0
  -39.2514  -45.0129   16.9440 C   0  0  0  0  0  0  0  0  0  0  0  0
  -40.5004  -45.2095   17.4809 C   0  0  0  0  0  0  0  0  0  0  0  0
  -40.6629  -45.3385   18.8420 C   0  0  0  0  0  0  0  0  0  0  0  0
  -39.5621  -45.2621   19.6748 C   0  0  0  0  0  0  0  0  0  0  0  0
  -38.3143  -45.0726   19.1248 C   0  0  0  0  0  0  0  0  0  0  0  0
  -39.7065  -45.3904   21.1936 C   0  0  0  0  0  0  0  0  0  0  0  0
  -41.1556  -45.3340   21.7264 C   0  0  0  0  0  0  0  0  0  0  0  0
  -42.1001  -46.1426   20.8167 C   0  0  0  0  0  0  0  0  0  0  0  0
  -42.0664  -45.5481   19.3949 C   0  0  0  0  0  0  0  0  0  0  0  0
  -39.0145  -46.5816   21.6692 N   0  0  0  0  0  0  0  0  0  0  0  0
  -37.9700  -46.2747   22.4396 C   0  0  0  0  0  0  0  0  0  0  0  0
  -37.1303  -47.1619   22.9972 N   0  0  0  0  0  0  0  0  0  0  0  0
  -37.9145  -44.9152   22.5595 N   0  3  0  0  0  0  0  0  0  0  0  0
  -36.9109  -44.2068   23.3380 C   0  0  0  0  0  0  0  0  0  0  0  0
  -38.8879  -44.3139   21.8990 C   0  0  0  0  0  0  0  0  0  0  0  0
  -39.0923  -43.0874   21.8994 O   0  0  0  0  0  0  0  0  0  0  0  0
  -36.6129  -44.0939   15.9913 C   0  0  0  0  0  0  0  0  0  0  0  0
  -35.3565  -43.9039   15.4727 C   0  0  0  0  0  0  0  0  0  0  0  0
  -30.8889  -44.3897   15.6352 H   0  0  0  0  0  0  0  0  0  0  0  0
  -31.7742  -44.1705   17.3640 H   0  0  0  0  0  0  0  0  0  0  0  0
  -31.9433  -45.8594   16.3791 H   0  0  0  0  0  0  0  0  0  0  0  0
  -33.6202  -45.3675   17.8482 H   0  0  0  0  0  0  0  0  0  0  0  0
  -35.7712  -45.6869   18.7376 H   0  0  0  0  0  0  0  0  0  0  0  0
  -39.1532  -44.9251   15.9536 H   0  0  0  0  0  0  0  0  0  0  0  0
  -41.2971  -45.2594   16.8786 H   0  0  0  0  0  0  0  0  0  0  0  0
  -37.5234  -45.0197   19.7329 H   0  0  0  0  0  0  0  0  0  0  0  0
  -41.1907  -45.7672   22.8450 H   0  0  0  0  0  0  0  0  0  0  0  0
  -41.5237  -44.1920   21.7311 H   0  0  0  0  0  0  0  0  0  0  0  0
  -43.2200  -46.0974   21.2447 H   0  0  0  0  0  0  0  0  0  0  0  0
  -41.7277  -47.2825   20.7786 H   0  0  0  0  0  0  0  0  0  0  0  0
  -42.6820  -46.2789   18.6684 H   0  0  0  0  0  0  0  0  0  0  0  0
  -42.6179  -44.4827   19.4232 H   0  0  0  0  0  0  0  0  0  0  0  0
  -39.2852  -47.5162   21.4384 H   0  0  0  0  0  0  0  0  0  0  0  0
  -37.2648  -48.1411   22.8450 H   0  0  0  0  0  0  0  0  0  0  0  0
  -36.3705  -46.8437   23.5642 H   0  0  0  0  0  0  0  0  0  0  0  0
  -35.8170  -44.5229   22.9594 H   0  0  0  0  0  0  0  0  0  0  0  0
  -37.0291  -44.4893   24.4981 H   0  0  0  0  0  0  0  0  0  0  0  0
  -37.0546  -43.0235   23.1977 H   0  0  0  0  0  0  0  0  0  0  0  0
  -37.4044  -43.7483   15.4893 H   0  0  0  0  0  0  0  0  0  0  0  0
  -35.2512  -43.4259   14.6004 H   0  0  0  0  0  0  0  0  0  0  0  0
  1  2  1  0
  2  3  1  0
  3  4  2  0
  4  5  1  0
  5  6  2  0
  6  7  1  0
  6 24  1  0
  7  8  2  0
  8  9  1  0
  9 10  2  0
 10 11  1  0
 11 12  2  0
 11 13  1  0
 12  7  1  0
 13 14  1  0
 13 17  1  0
 14 15  1  0
 15 16  1  0
 16 10  1  0
 17 18  1  0
 18 19  1  0
 18 20  2  0
 20 21  1  0
 20 22  1  0
 22 13  1  0
 22 23  2  0
 24 25  2  0
 25  3  1  0
  1 26  1  0
  1 27  1  0
  1 28  1  0
  4 29  1  0
  5 30  1  0
  8 31  1  0
  9 32  1  0
 12 33  1  0
 14 34  1  0
 14 35  1  0
 15 36  1  0
 15 37  1  0
 16 38  1  0
 16 39  1  0
 17 40  1  0
 19 41  1  0
 19 42  1  0
 21 43  1  0
 21 44  1  0
 21 45  1  0
 24 46  1  0
 25 47  1  0
M  CHG  1  20   1
M  END
>  <Alignment>
1

>  <Alns>
1

>  <Conformer>
1

>  <Confs>
1

>  <Excl Vol Pen>
0

>  <FScore>
-135.415

>  <FScore+P>
-132.971

>  <FSim>
0.916

>  <Field Penalty>
0

>  <Filename>
intermediate_bace_combination_03_biphenyl~16_spirocycles.sdf

>  <Ref>
lig_16

>  <SScore>
216.626

>  <SScore+P>
209.294

>  <SSim>
0.92

>  <Sim>
0.918

>  <_cresset_fieldpoints2>
 2
    -5     -32.566715     -42.950985      13.906494     -5.2643
    -5     -40.084049     -42.217602      20.729500    -19.3576
    -5     -35.957623     -47.065025      15.302732     -3.4489
    -6     -32.053589     -46.098759      18.932722      5.0237
    -6     -38.581764     -49.226681      21.932949     12.1164
    -6     -35.633705     -48.703861      23.932083      9.0500
    -6     -35.223602     -45.940056      20.901554      5.5310
    -6     -43.318958     -45.698238      16.394833      3.1018
    -6     -39.002281     -43.942657      14.086995      3.8119
    -6     -34.961399     -46.071922      24.605406      9.2174
    -7     -35.542789     -46.264420      20.986637     -3.0869
    -7     -36.323246     -42.951561      20.410315     -2.9756
    -7     -31.844042     -46.362911      19.146517     -1.3908
    -7     -43.638359     -44.180767      16.884010     -1.4937
    -7     -44.013252     -43.449104      21.379320     -1.5727
    -7     -39.992035     -47.795383      23.892416     -2.1620
    -7     -45.249260     -45.117210      19.792122     -1.2137
    -7     -36.734280     -47.615639      20.178961     -3.1299
    -7     -39.560509     -45.500519      24.774988     -2.3299
    -7     -40.628349     -42.240700      20.141825     -2.9348
    -7     -34.656265     -45.764317      25.189323     -0.9288
    -7     -33.330059     -41.916451      18.084103     -1.7180
    -7     -33.938694     -47.390438      14.999245     -1.7336
    -7     -37.080929     -47.487083      15.486172     -2.1242
    -7     -39.824387     -48.475330      19.114061     -2.7210
    -8     -39.402832     -45.136608      18.302704      7.2229
    -8     -31.272549     -45.001663      16.749001      2.5018
    -8     -40.941391     -45.484093      20.266005      6.6912
    -8     -37.148388     -45.042683      18.164572      5.7800
    -8     -37.782398     -44.651379      16.805513      5.7417
    -8     -37.744976     -44.823524      22.653809      2.0873
    -8     -36.320599     -43.818638      23.783855      2.4662
    -8     -35.554180     -44.562687      16.688101      7.0657

$$$$
intermediate_03_biphenyl_74_amide_series
  xed2sdf           3D
 
 45 48  0  0  1  0  0  0  0  0999 V2000
  -41.2337  -46.8358   20.7320 C   0  0  0  0  0  0  0  0  0  0  0  0
  -39.9957  -45.9400   20.9415 C   0  0  0  0  0  0  0  0  0  0  0  0
  -39.3759  -45.5302   19.5970 C   0  0  0  0  0  0  0  0  0  0  0  0
  -40.1466  -44.9441   18.6116 C   0  0  0  0  0  0  0  0  0  0  0  0
  -39.5917  -44.5676   17.4092 C   0  0  0  0  0  0  0  0  0  0  0  0
  -38.2540  -44.7687   17.1729 C   0  0  0  0  0  0  0  0  0  0  0  0
  -37.4574  -45.3503   18.1442 C   0  0  0  0  0  0  0  0  0  0  0  0
  -36.0852  -45.5711   17.9430 N   0  0  0  0  0  0  0  0  0  0  0  0
  -35.2893  -45.1195   16.9495 C   0  0  0  0  0  0  0  0  0  0  0  0
  -35.6603  -44.4086   16.0209 O   0  0  0  0  0  0  0  0  0  0  0  0
  -33.8565  -45.5089   17.0100 C   0  0  0  0  0  0  0  0  0  0  0  0
  -32.9548  -44.9761   16.1001 C   0  0  0  0  0  0  0  0  0  0  0  0
  -31.6402  -45.3281   16.1723 C   0  0  0  0  0  0  0  0  0  0  0  0
  -31.2474  -46.2137   17.1599 C   0  0  0  0  0  0  0  0  0  0  0  0
  -29.8698  -46.6136   17.2854 C   0  0  0  0  0  0  0  0  0  0  0  0
  -28.7832  -46.9289   17.3857 N   0  0  0  0  0  0  0  0  0  0  0  0
  -32.2043  -46.7100   18.0327 C   0  0  0  0  0  0  0  0  0  0  0  0
  -33.5044  -46.3802   17.9853 N   0  0  0  0  0  0  0  0  0  0  0  0
  -38.0355  -45.7243   19.3447 C   0  0  0  0  0  0  0  0  0  0  0  0
  -40.4599  -44.6922   21.7449 C   0  0  0  0  0  0  0  0  0  0  0  0
  -39.2845  -44.1477   22.4246 N   0  0  0  0  0  0  0  0  0  0  0  0
  -39.0934  -42.9073   22.8094 N   0  0  0  0  0  0  0  0  0  0  0  0
  -37.9026  -42.7536   23.4532 N   0  0  0  0  0  0  0  0  0  0  0  0
  -37.3080  -43.9162   23.4979 C   0  0  0  0  0  0  0  0  0  0  0  0
  -38.1910  -44.7989   22.8426 C   0  0  0  0  0  0  0  0  0  0  0  0
  -38.1292  -46.2484   22.5529 C   0  0  0  0  0  0  0  0  0  0  0  0
  -37.1854  -46.9999   23.1428 N   0  0  0  0  0  0  0  0  0  0  0  0
  -39.0441  -46.7701   21.7079 N   0  3  0  0  0  0  0  0  0  0  0  0
  -42.1107  -46.1982   20.2186 H   0  0  0  0  0  0  0  0  0  0  0  0
  -40.9465  -47.7601   20.0223 H   0  0  0  0  0  0  0  0  0  0  0  0
  -41.6135  -47.2568   21.7897 H   0  0  0  0  0  0  0  0  0  0  0  0
  -41.1210  -44.7895   18.7732 H   0  0  0  0  0  0  0  0  0  0  0  0
  -40.1642  -44.1457   16.7062 H   0  0  0  0  0  0  0  0  0  0  0  0
  -37.8598  -44.4936   16.2974 H   0  0  0  0  0  0  0  0  0  0  0  0
  -35.6859  -46.0596   18.5591 H   0  0  0  0  0  0  0  0  0  0  0  0
  -33.2668  -44.3360   15.3980 H   0  0  0  0  0  0  0  0  0  0  0  0
  -30.9743  -44.9534   15.5272 H   0  0  0  0  0  0  0  0  0  0  0  0
  -31.9075  -47.3507   18.7408 H   0  0  0  0  0  0  0  0  0  0  0  0
  -37.4637  -46.1453   20.0488 H   0  0  0  0  0  0  0  0  0  0  0  0
  -41.2530  -45.0089   22.5884 H   0  0  0  0  0  0  0  0  0  0  0  0
  -40.9551  -43.8687   21.0256 H   0  0  0  0  0  0  0  0  0  0  0  0
  -36.4210  -44.1321   23.9062 H   0  0  0  0  0  0  0  0  0  0  0  0
  -36.5234  -46.5814   23.7659 H   0  0  0  0  0  0  0  0  0  0  0  0
  -37.1410  -47.9822   22.9611 H   0  0  0  0  0  0  0  0  0  0  0  0
  -39.0437  -47.7598   21.5592 H   0  0  0  0  0  0  0  0  0  0  0  0
  2  1  1  0
  2  3  1  0
  2 20  1  0
  3  4  2  0
  4  5  1  0
  5  6  2  0
  6  7  1  0
  7  8  1  0
  7 19  2  0
  8  9  1  0
  9 10  2  0
  9 11  1  0
 11 12  2  0
 12 13  1  0
 13 14  2  0
 14 15  1  0
 14 17  1  0
 15 16  3  0
 17 18  2  0
 18 11  1  0
 19  3  1  0
 20 21  1  0
 21 22  1  0
 22 23  2  0
 23 24  1  0
 24 25  2  0
 25 21  1  0
 25 26  1  0
 26 27  1  0
 26 28  2  0
 28  2  1  0
  1 29  1  0
  1 30  1  0
  1 31  1  0
  4 32  1  0
  5 33  1  0
  6 34  1  0
  8 35  1  0
 12 36  1  0
 13 37  1  0
 17 38  1  0
 19 39  1  0
 20 40  1  0
 20 41  1  0
 24 42  1  0
 27 43  1  0
 27 44  1  0
 28 45  1  0
M  CHG  1  28   1
M  END
>  <Alignment>
1

>  <Alns>
1

>  <Conformer>
1

>  <Confs>
1

>  <Excl Vol Pen>
0

>  <FScore>
-155.266

>  <FScore+P>
-153.489

>  <FSim>
0.952

>  <Field Penalty>
0

>  <Filename>
intermediate_bace_combination_03_biphenyl~74_amide_series.sdf

>  <Ref>
lig_74

>  <SScore>
228.37

>  <SScore+P>
223.038

>  <SSim>
0.962

>  <Sim>
0.957

>  <_cresset_fieldpoints2>
 2
    -5     -39.390461     -47.502708      16.661589     -2.3077
    -5     -38.777954     -41.182789      23.227875    -24.5086
    -5     -36.233704     -43.108925      14.737478    -10.6462
    -5     -26.990742     -47.573067      17.578756    -12.8982
    -6     -42.893177     -44.171726      19.859207      5.2660
    -6     -35.467365     -48.319862      23.938663     10.9319
    -6     -31.298071     -48.297756      20.309250      4.9049
    -6     -31.054869     -43.654270      13.959214      4.9883
    -6     -31.487530     -48.768673      15.676018      3.1462
    -6     -35.712006     -47.119633      20.300299     11.2055
    -6     -37.775913     -49.192951      21.620890     15.7815
    -6     -34.916748     -45.672859      24.274199     10.0287
    -7     -43.192486     -43.922520      19.766390     -1.8523
    -7     -38.730591     -48.882381      19.229860     -2.1924
    -7     -38.417805     -42.453072      20.416962     -3.2812
    -7     -39.695866     -48.231651      17.689629     -2.2586
    -7     -35.344360     -46.085827      21.228916     -2.9134
    -7     -31.590973     -43.172375      13.561252     -0.9828
    -7     -35.817265     -48.205162      17.196714     -2.1780
    -7     -33.196106     -48.353092      15.162062     -1.6212
    -7     -29.907352     -47.541512      20.429052     -1.1032
    -7     -30.149048     -49.156288      19.323818     -1.1026
    -7     -32.216045     -43.469334      19.192181     -1.6473
    -7     -40.557999     -43.146282      24.647249     -1.7702
    -7     -40.392044     -47.218704      24.090126     -2.4603
    -8     -38.843128     -45.145710      18.386709      7.0594
    -8     -40.461384     -45.575428      20.013777      5.6509
    -8     -32.246616     -45.681118      16.776440      5.5380
    -8     -37.331612     -45.063469      23.177160      3.2827

$$$$
intermediate_04_biphenyl_1a_spirocycles
  xed2sdf           3D
 
 35 37  0  0  1  0  0  0  0  0999 V2000
  -36.6385  -45.8294   19.8449 C   0  0  0  0  0  0  0  0  0  0  0  0
  -37.8878  -45.5036   19.0382 C   0  0  0  0  0  0  0  0  0  0  0  0
  -37.7148  -45.1341   17.7180 C   0  0  0  0  0  0  0  0  0  0  0  0
  -35.9939  -45.0378   16.9585 Br  0  0  0  0  0  0  0  0  0  0  0  0
  -38.8001  -44.8279   16.9317 C   0  0  0  0  0  0  0  0  0  0  0  0
  -40.0638  -44.8891   17.4630 C   0  0  0  0  0  0  0  0  0  0  0  0
  -40.2351  -45.2554   18.7767 C   0  0  0  0  0  0  0  0  0  0  0  0
  -39.1618  -45.5692   19.5885 C   0  0  0  0  0  0  0  0  0  0  0  0
  -39.4447  -45.9637   21.0541 C   0  0  0  0  0  0  0  0  0  0  0  0
  -40.9220  -46.2659   21.3869 C   0  0  0  0  0  0  0  0  0  0  0  0
  -38.8186  -47.2674   21.3163 N   0  3  0  0  0  0  0  0  0  0  0  0
  -37.9659  -47.5140   22.3255 C   0  0  0  0  0  0  0  0  0  0  0  0
  -37.3986  -48.7086   22.5119 N   0  0  0  0  0  0  0  0  0  0  0  0
  -37.5596  -46.4721   23.3471 C   0  0  0  0  0  0  0  0  0  0  0  0
  -38.1109  -45.1668   23.0002 N   0  0  0  0  0  0  0  0  0  0  0  0
  -37.8631  -44.0090   23.6535 N   0  0  0  0  0  0  0  0  0  0  0  0
  -38.5308  -43.0424   23.0775 C   0  0  0  0  0  0  0  0  0  0  0  0
  -39.2561  -43.5605   21.9981 C   0  0  0  0  0  0  0  0  0  0  0  0
  -38.9607  -44.8668   21.9959 C   0  0  0  0  0  0  0  0  0  0  0  0
  -35.6513  -45.7123   19.1713 H   0  0  0  0  0  0  0  0  0  0  0  0
  -36.5545  -45.0846   20.7816 H   0  0  0  0  0  0  0  0  0  0  0  0
  -36.7035  -46.9603   20.2407 H   0  0  0  0  0  0  0  0  0  0  0  0
  -38.6690  -44.5614   15.9769 H   0  0  0  0  0  0  0  0  0  0  0  0
  -40.8575  -44.6676   16.8966 H   0  0  0  0  0  0  0  0  0  0  0  0
  -41.1613  -45.2949   19.1493 H   0  0  0  0  0  0  0  0  0  0  0  0
  -41.5759  -45.2609   21.3291 H   0  0  0  0  0  0  0  0  0  0  0  0
  -40.9939  -46.7184   22.4959 H   0  0  0  0  0  0  0  0  0  0  0  0
  -41.3468  -47.0669   20.6011 H   0  0  0  0  0  0  0  0  0  0  0  0
  -39.0448  -48.0233   20.7010 H   0  0  0  0  0  0  0  0  0  0  0  0
  -37.6028  -49.4640   21.8892 H   0  0  0  0  0  0  0  0  0  0  0  0
  -36.7662  -48.8530   23.2739 H   0  0  0  0  0  0  0  0  0  0  0  0
  -36.3624  -46.4017   23.3866 H   0  0  0  0  0  0  0  0  0  0  0  0
  -37.9716  -46.7982   24.4259 H   0  0  0  0  0  0  0  0  0  0  0  0
  -38.5241  -42.0842   23.3634 H   0  0  0  0  0  0  0  0  0  0  0  0
  -39.8578  -43.0667   21.3702 H   0  0  0  0  0  0  0  0  0  0  0  0
  1  2  1  0
  2  3  2  0
  3  4  1  0
  3  5  1  0
  5  6  2  0
  6  7  1  0
  7  8  2  0
  8  2  1  0
  8  9  1  0
  9 10  1  0
  9 11  1  0
 11 12  2  0
 12 13  1  0
 12 14  1  0
 14 15  1  0
 15 16  1  0
 16 17  2  0
 17 18  1  0
 18 19  2  0
 19  9  1  0
 19 15  1  0
  1 20  1  0
  1 21  1  0
  1 22  1  0
  5 23  1  0
  6 24  1  0
  7 25  1  0
 10 26  1  0
 10 27  1  0
 10 28  1  0
 11 29  1  0
 13 30  1  0
 13 31  1  0
 14 32  1  0
 14 33  1  0
 17 34  1  0
 18 35  1  0
M  CHG  1  11   1
M  END
>  <Alignment>
1

>  <Alns>
1

>  <Conformer>
1

>  <Confs>
1

>  <Excl Vol Pen>
0

>  <FScore>
-103.052

>  <FScore+P>
-102.745

>  <FSim>
0.841

>  <Field Penalty>
0

>  <Filename>
intermediate_bace_combination_04_biphenyl~1a_spirocycles.sdf

>  <Ref>
lig_04

>  <SScore>
169.892

>  <SScore+P>
168.969

>  <SSim>
0.851

>  <Sim>
0.846

>  <_cresset_fieldpoints2>
 2
    -5     -36.767124     -43.851536      25.112194    -11.8528
    -5     -37.216961     -42.716492      19.950790     -4.6083
    -5     -37.953716     -47.855698      16.547085     -1.8111
    -6     -35.796883     -48.348618      24.845896      8.0314
    -6     -36.401268     -50.834427      22.816948      8.0384
    -6     -38.700497     -49.872261      20.343307     11.1470
    -6     -40.757504     -44.082279      14.672066      3.0294
    -6     -43.174114     -45.565685      19.429193      4.4468
    -6     -42.014492     -43.303036      20.306166      3.8651
    -7     -34.892269     -47.908833      21.739550     -2.0826
    -7     -37.194901     -42.413666      19.641174     -2.9326
    -7     -38.105270     -48.633030      18.417038     -2.5932
    -7     -40.400517     -43.072365      14.574320     -1.0163
    -7     -40.537968     -43.809296      14.247532     -1.0162
    -7     -42.031841     -42.971886      20.189213     -2.1847
    -7     -43.509064     -45.804424      19.379889     -1.5488
    -7     -37.873615     -42.237587      19.323935     -2.9248
    -7     -40.392673     -45.582920      24.816036     -2.2824
    -7     -40.239021     -49.255428      22.684502     -2.2328
    -7     -35.778690     -48.083492      25.564514     -0.9848
    -7     -35.429688     -44.023876      22.728506     -2.2617
    -8     -38.977398     -45.194122      18.260555      7.1996
    -8     -36.803127     -45.320175      18.142088      5.8704
    -8     -40.179615     -45.617767      20.205219      5.6838
    -8     -37.327847     -47.121090      23.431513      2.7888

$$$$
intermediate_05_biphenyl_36_spirocycles
  xed2sdf           3D
 
 53 56  0  0  1  0  0  0  0  0999 V2000
  -31.2372  -46.9068   18.8670 C   0  0  0  0  0  0  0  0  0  0  0  0
  -32.3838  -46.2596   18.2270 C   0  0  0  0  0  0  0  0  0  0  0  0
  -33.3538  -45.7343   17.7062 C   0  0  0  0  0  0  0  0  0  0  0  0
  -34.5034  -45.1214   17.0931 C   0  0  0  0  0  0  0  0  0  0  0  0
  -34.3720  -44.3981   15.9158 C   0  0  0  0  0  0  0  0  0  0  0  0
  -35.4822  -43.8342   15.3390 C   0  0  0  0  0  0  0  0  0  0  0  0
  -36.7200  -43.9850   15.9227 C   0  0  0  0  0  0  0  0  0  0  0  0
  -36.8765  -44.7003   17.1038 C   0  0  0  0  0  0  0  0  0  0  0  0
  -38.1873  -44.8623   17.7214 C   0  0  0  0  0  0  0  0  0  0  0  0
  -39.3478  -44.8265   16.9640 C   0  0  0  0  0  0  0  0  0  0  0  0
  -40.5763  -44.9921   17.5507 C   0  0  0  0  0  0  0  0  0  0  0  0
  -40.6837  -45.1948   18.9130 C   0  0  0  0  0  0  0  0  0  0  0  0
  -39.5348  -45.2185   19.6948 C   0  0  0  0  0  0  0  0  0  0  0  0
  -38.3101  -45.0585   19.0891 C   0  0  0  0  0  0  0  0  0  0  0  0
  -39.5973  -45.4063   21.2159 C   0  0  0  0  0  0  0  0  0  0  0  0
  -41.0412  -45.5797   21.7526 C   0  0  0  0  0  0  0  0  0  0  0  0
  -42.0450  -46.1019   20.6948 C   0  0  0  0  0  0  0  0  0  0  0  0
  -43.4621  -45.9128   21.2654 C   0  0  0  0  0  0  0  0  0  0  0  0
  -41.8689  -47.6166   20.4511 C   0  0  0  0  0  0  0  0  0  0  0  0
  -41.9315  -45.3578   19.4585 O   0  0  0  0  0  0  0  0  0  0  0  0
  -38.8722  -46.6223   21.6048 N   0  3  0  0  0  0  0  0  0  0  0  0
  -38.0210  -46.6694   22.6400 C   0  0  0  0  0  0  0  0  0  0  0  0
  -37.3917  -47.7904   23.0051 N   0  0  0  0  0  0  0  0  0  0  0  0
  -37.7167  -45.4285   23.4520 C   0  0  0  0  0  0  0  0  0  0  0  0
  -37.6953  -44.2122   22.5179 C   0  0  0  0  0  0  0  0  0  0  0  0
  -39.0399  -44.1367   21.8413 C   0  0  0  0  0  0  0  0  0  0  0  0
  -39.6505  -43.0920   21.8480 O   0  0  0  0  0  0  0  0  0  0  0  0
  -35.7514  -45.2627   17.6792 C   0  0  0  0  0  0  0  0  0  0  0  0
  -30.2202  -46.4564   18.4166 H   0  0  0  0  0  0  0  0  0  0  0  0
  -31.2746  -46.7074   20.0497 H   0  0  0  0  0  0  0  0  0  0  0  0
  -31.2788  -48.0883   18.6606 H   0  0  0  0  0  0  0  0  0  0  0  0
  -33.4740  -44.2902   15.4894 H   0  0  0  0  0  0  0  0  0  0  0  0
  -35.3922  -43.3123   14.4908 H   0  0  0  0  0  0  0  0  0  0  0  0
  -37.5166  -43.5661   15.4890 H   0  0  0  0  0  0  0  0  0  0  0  0
  -39.2926  -44.6863   15.9763 H   0  0  0  0  0  0  0  0  0  0  0  0
  -41.4010  -44.9676   16.9855 H   0  0  0  0  0  0  0  0  0  0  0  0
  -37.4877  -45.0781   19.6550 H   0  0  0  0  0  0  0  0  0  0  0  0
  -41.0272  -46.3068   22.7069 H   0  0  0  0  0  0  0  0  0  0  0  0
  -41.4201  -44.5019   22.1179 H   0  0  0  0  0  0  0  0  0  0  0  0
  -44.2801  -46.3247   20.4899 H   0  0  0  0  0  0  0  0  0  0  0  0
  -43.5504  -46.5225   22.2951 H   0  0  0  0  0  0  0  0  0  0  0  0
  -43.6808  -44.7509   21.4720 H   0  0  0  0  0  0  0  0  0  0  0  0
  -40.8546  -47.8254   19.8466 H   0  0  0  0  0  0  0  0  0  0  0  0
  -42.7794  -48.0309   19.7884 H   0  0  0  0  0  0  0  0  0  0  0  0
  -41.8492  -48.2026   21.4980 H   0  0  0  0  0  0  0  0  0  0  0  0
  -39.0278  -47.4608   21.0848 H   0  0  0  0  0  0  0  0  0  0  0  0
  -37.5467  -48.6375   22.4969 H   0  0  0  0  0  0  0  0  0  0  0  0
  -36.7663  -47.7933   23.7860 H   0  0  0  0  0  0  0  0  0  0  0  0
  -38.5694  -45.2775   24.2828 H   0  0  0  0  0  0  0  0  0  0  0  0
  -36.6470  -45.5111   23.9894 H   0  0  0  0  0  0  0  0  0  0  0  0
  -36.8443  -44.3988   21.6932 H   0  0  0  0  0  0  0  0  0  0  0  0
  -37.4623  -43.1964   23.1127 H   0  0  0  0  0  0  0  0  0  0  0  0
  -35.8359  -45.7875   18.5251 H   0  0  0  0  0  0  0  0  0  0  0  0
  1  2  1  0
  2  3  3  0
  3  4  1  0
  4  5  2  0
  5  6  1  0
  6  7  2  0
  7  8  1  0
  8  9  1  0
  8 28  2  0
  9 10  2  0
 10 11  1  0
 11 12  2  0
 12 13  1  0
 13 14  2  0
 13 15  1  0
 14  9  1  0
 15 16  1  0
 15 21  1  0
 16 17  1  0
 17 18  1  0
 17 19  1  0
 17 20  1  0
 20 12  1  0
 21 22  2  0
 22 23  1  0
 22 24  1  0
 24 25  1  0
 25 26  1  0
 26 15  1  0
 26 27  2  0
 28  4  1  0
  1 29  1  0
  1 30  1  0
  1 31  1  0
  5 32  1  0
  6 33  1  0
  7 34  1  0
 10 35  1  0
 11 36  1  0
 14 37  1  0
 16 38  1  0
 16 39  1  0
 18 40  1  0
 18 41  1  0
 18 42  1  0
 19 43  1  0
 19 44  1  0
 19 45  1  0
 21 46  1  0
 23 47  1  0
 23 48  1  0
 24 49  1  0
 24 50  1  0
 25 51  1  0
 25 52  1  0
 28 53  1  0
M  CHG  1  21   1
M  END
>  <Alignment>
1

>  <Alns>
1

>  <Conformer>
1

>  <Confs>
1

>  <Excl Vol Pen>
0

>  <FScore>
-124.298

>  <FScore+P>
-119.117

>  <FSim>
0.75

>  <Field Penalty>
0

>  <Filename>
intermediate_bace_combination_05_biphenyl~36_spirocycles.sdf

>  <Ref>
lig_36

>  <SScore>
235.776

>  <SScore+P>
220.234

>  <SSim>
0.901

>  <Sim>
0.826

>  <_cresset_fieldpoints2>
 2
    -5     -36.053596     -47.047443      15.146866     -3.5594
    -5     -35.467972     -42.117008      18.074444     -3.7369
    -5     -41.017895     -42.533379      20.668419    -14.4116
    -5     -39.470615     -41.325489      22.287041    -12.4730
    -5     -39.480804     -47.732700      24.135805     -2.2316
    -6     -35.703705     -45.992504      20.540840      4.8735
    -6     -38.731480     -49.352058      21.068392     11.3130
    -6     -33.570423     -42.872173      13.239798      2.5195
    -6     -36.310318     -49.845474      23.566822      7.4907
    -6     -39.197720     -43.583664      14.182289      4.0891
    -6     -42.216145     -47.997639      23.754780      3.5852
    -6     -35.484123     -47.468201      25.169930      6.8638
    -7     -35.959488     -46.791630      20.687441     -3.7445
    -7     -36.831059     -47.343597      15.180460     -2.1761
    -7     -30.916855     -44.544006      15.802756     -1.5971
    -7     -32.957722     -42.955772      13.217936     -0.9996
    -7     -32.862133     -41.883579      14.316153     -0.9960
    -7     -41.612804     -42.538841      20.501083     -3.0215
    -7     -39.373230     -41.960766      19.666937     -2.7972
    -7     -42.725742     -44.995712      24.413195     -1.6011
    -7     -44.575516     -48.977856      21.686913     -1.4096
    -7     -43.682678     -46.533634      17.748524     -2.3526
    -7     -38.686111     -48.231758      18.515505     -2.9292
    -7     -36.202137     -42.685059      19.805079     -2.8549
    -7     -42.301785     -48.017605      24.022421     -1.6469
    -7     -40.077080     -48.585651      23.283178     -2.7443
    -7     -40.505722     -43.482903      24.308464     -2.2746
    -8     -32.180901     -46.391338      18.357027      4.2624
    -8     -35.621140     -44.554295      16.517014      7.1887
    -8     -39.403278     -45.025005      18.308086      7.0957
    -8     -37.864227     -44.532494      16.767931      5.7494
    -8     -37.193703     -45.035046      18.069704      5.8009
    -8     -42.120293     -46.506832      21.404104      5.4001
    -8     -40.497311     -45.526920      20.592890      5.2173
    -8     -38.241684     -45.020103      22.522358      5.2914

$$$$
intermediate_05_biphenyl_69_amide_series
  xed2sdf           3D
 
 33 34  0  0  1  0  0  0  0  0999 V2000
  -41.3455  -46.7313   21.0930 C   0  0  0  0  0  0  0  0  0  0  0  0
  -39.9743  -46.0398   20.9506 C   0  0  0  0  0  0  0  0  0  0  0  0
  -39.5837  -45.7148   19.5024 C   0  0  0  0  0  0  0  0  0  0  0  0
  -40.5396  -45.4901   18.5317 C   0  0  0  0  0  0  0  0  0  0  0  0
  -40.1771  -45.1859   17.2396 C   0  0  0  0  0  0  0  0  0  0  0  0
  -38.8496  -45.0996   16.8988 C   0  0  0  0  0  0  0  0  0  0  0  0
  -37.8711  -45.3160   17.8483 C   0  0  0  0  0  0  0  0  0  0  0  0
  -36.5596  -45.2194   17.4728 O   0  0  0  0  0  0  0  0  0  0  0  0
  -35.5408  -45.4322   18.4698 C   0  0  0  0  0  0  0  0  0  0  0  0
  -34.3053  -45.2584   17.8582 F   0  0  0  0  0  0  0  0  0  0  0  0
  -38.2547  -45.6209   19.1446 C   0  0  0  0  0  0  0  0  0  0  0  0
  -40.0162  -44.7651   21.8182 C   0  0  0  0  0  0  0  0  0  0  0  0
  -38.6790  -44.2832   22.0153 O   0  0  0  0  0  0  0  0  0  0  0  0
  -37.9115  -45.1811   22.8327 C   0  0  0  0  0  0  0  0  0  0  0  0
  -38.0382  -46.6138   22.3585 C   0  0  0  0  0  0  0  0  0  0  0  0
  -37.1293  -47.4661   22.8393 N   0  0  0  0  0  0  0  0  0  0  0  0
  -39.0112  -46.9852   21.5149 N   0  3  0  0  0  0  0  0  0  0  0  0
  -42.2246  -45.9601   20.8247 H   0  0  0  0  0  0  0  0  0  0  0  0
  -41.4876  -47.1105   22.2225 H   0  0  0  0  0  0  0  0  0  0  0  0
  -41.3937  -47.6741   20.3524 H   0  0  0  0  0  0  0  0  0  0  0  0
  -41.5087  -45.5483   18.7685 H   0  0  0  0  0  0  0  0  0  0  0  0
  -40.8816  -45.0267   16.5480 H   0  0  0  0  0  0  0  0  0  0  0  0
  -38.5917  -44.8778   15.9582 H   0  0  0  0  0  0  0  0  0  0  0  0
  -35.6610  -44.6354   19.3593 H   0  0  0  0  0  0  0  0  0  0  0  0
  -35.6226  -46.5471   18.9066 H   0  0  0  0  0  0  0  0  0  0  0  0
  -37.5534  -45.7774   19.8396 H   0  0  0  0  0  0  0  0  0  0  0  0
  -40.6679  -43.9256   21.2606 H   0  0  0  0  0  0  0  0  0  0  0  0
  -40.5155  -44.9959   22.8856 H   0  0  0  0  0  0  0  0  0  0  0  0
  -36.7602  -44.8430   22.8083 H   0  0  0  0  0  0  0  0  0  0  0  0
  -38.3159  -45.1166   23.9605 H   0  0  0  0  0  0  0  0  0  0  0  0
  -36.4217  -47.1480   23.4714 H   0  0  0  0  0  0  0  0  0  0  0  0
  -37.1538  -48.4286   22.5689 H   0  0  0  0  0  0  0  0  0  0  0  0
  -39.0658  -47.9454   21.2389 H   0  0  0  0  0  0  0  0  0  0  0  0
  2  1  1  0
  2  3  1  0
  2 12  1  0
  3  4  2  0
  4  5  1  0
  5  6  2  0
  6  7  1  0
  7  8  1  0
  7 11  2  0
  8  9  1  0
  9 10  1  0
 11  3  1  0
 12 13  1  0
 13 14  1  0
 14 15  1  0
 15 16  1  0
 15 17  2  0
 17  2  1  0
  1 18  1  0
  1 19  1  0
  1 20  1  0
  4 21  1  0
  5 22  1  0
  6 23  1  0
  9 24  1  0
  9 25  1  0
 11 26  1  0
 12 27  1  0
 12 28  1  0
 14 29  1  0
 14 30  1  0
 16 31  1  0
 16 32  1  0
 17 33  1  0
M  CHG  1  17   1
M  END
>  <Alignment>
1

>  <Alns>
1

>  <Conformer>
1

>  <Confs>
11

>  <Excl Vol Pen>
0

>  <FScore>
-92.452

>  <FScore+P>
-91.647

>  <FSim>
0.824

>  <Field Penalty>
0

>  <Filename>
intermediate_bace_combination_05_biphenyl~69_amide_series.sdf

>  <Ref>
lig_05

>  <SScore>
145.513

>  <SScore+P>
143.098

>  <SSim>
0.8

>  <Sim>
0.812

>  <_cresset_fieldpoints2>
 2
    -5     -35.661499     -44.541393      15.563630     -5.9875
    -5     -38.108498     -42.929756      20.787466    -10.6579
    -5     -39.195484     -48.113327      17.036098     -2.2585
    -5     -39.401573     -47.501247      24.055443     -2.2464
    -6     -38.180901     -49.633221      21.422398     10.7423
    -6     -42.896210     -44.479961      22.572208      3.3531
    -6     -43.569237     -45.719845      18.941072      3.8130
    -6     -35.152275     -46.160198      21.198288      5.6827
    -6     -35.493469     -49.019966      23.588654      7.7706
    -6     -35.160717     -46.045685      24.398600      7.1721
    -7     -42.823067     -43.605492      19.912258     -1.9135
    -7     -43.140903     -44.266407      22.574343     -1.4260
    -7     -43.278690     -47.309673      18.452770     -1.5654
    -7     -40.185276     -46.238155      14.020174     -0.9677
    -7     -40.339523     -44.405224      13.932867     -0.9766
    -7     -36.905937     -48.387569      20.041725     -2.7612
    -7     -35.123924     -46.445496      21.420938     -2.5072
    -7     -37.409866     -42.882191      20.494585     -2.7625
    -7     -39.430290     -48.847771      18.778843     -2.3814
    -7     -40.020287     -47.381145      24.283508     -2.3164
    -8     -39.245762     -45.407589      18.206715      7.0539
    -8     -40.630589     -45.897446      19.996183      5.5936
    -8     -34.779812     -45.492191      18.815071      3.3486
    -8     -37.639313     -45.695782      23.232515      2.8102

$$$$
intermediate_06_biphenyl_45_amide_series
  xed2sdf           3D
 
 43 45  0  0  1  0  0  0  0  0999 V2000
  -41.2336  -46.4102   20.9574 C   0  0  0  0  0  0  0  0  0  0  0  0
  -39.8116  -45.8183   20.9340 C   0  0  0  0  0  0  0  0  0  0  0  0
  -39.2494  -45.5270   19.5411 C   0  0  0  0  0  0  0  0  0  0  0  0
  -40.0628  -45.1050   18.5087 C   0  0  0  0  0  0  0  0  0  0  0  0
  -39.5372  -44.8295   17.2666 C   0  0  0  0  0  0  0  0  0  0  0  0
  -38.1895  -44.9669   17.0408 C   0  0  0  0  0  0  0  0  0  0  0  0
  -37.3515  -45.3809   18.0620 C   0  0  0  0  0  0  0  0  0  0  0  0
  -35.9689  -45.5339   17.8664 N   0  0  0  0  0  0  0  0  0  0  0  0
  -35.2052  -45.0532   16.8567 C   0  0  0  0  0  0  0  0  0  0  0  0
  -35.6236  -44.3286   15.9570 O   0  0  0  0  0  0  0  0  0  0  0  0
  -33.7690  -45.3947   16.8174 C   0  0  0  0  0  0  0  0  0  0  0  0
  -32.8441  -44.9614   15.9400 C   0  0  0  0  0  0  0  0  0  0  0  0
  -31.6579  -45.4440   16.1698 O   0  0  0  0  0  0  0  0  0  0  0  0
  -31.7880  -46.2472   17.2574 C   0  0  0  0  0  0  0  0  0  0  0  0
  -30.7649  -46.9266   17.7935 F   0  0  0  0  0  0  0  0  0  0  0  0
  -33.0400  -46.2551   17.6913 C   0  0  0  0  0  0  0  0  0  0  0  0
  -37.8988  -45.6574   19.3022 C   0  0  0  0  0  0  0  0  0  0  0  0
  -39.8688  -44.4932   21.6533 C   0  0  0  0  0  0  0  0  0  0  0  0
  -39.1574  -44.1550   22.7080 C   0  0  0  0  0  0  0  0  0  0  0  0
  -39.2558  -42.8037   23.3726 C   0  0  0  0  0  0  0  0  0  0  0  0
  -38.0131  -42.1825   23.3281 F   0  0  0  0  0  0  0  0  0  0  0  0
  -38.1920  -45.1345   23.3249 C   0  0  0  0  0  0  0  0  0  0  0  0
  -38.2292  -46.5122   22.6974 C   0  0  0  0  0  0  0  0  0  0  0  0
  -37.4542  -47.4166   23.3014 N   0  0  0  0  0  0  0  0  0  0  0  0
  -38.9834  -46.8041   21.6286 N   0  3  0  0  0  0  0  0  0  0  0  0
  -42.0240  -45.6083   20.5434 H   0  0  0  0  0  0  0  0  0  0  0  0
  -41.5227  -46.6967   22.0863 H   0  0  0  0  0  0  0  0  0  0  0  0
  -41.2629  -47.3978   20.2764 H   0  0  0  0  0  0  0  0  0  0  0  0
  -41.0444  -44.9970   18.6617 H   0  0  0  0  0  0  0  0  0  0  0  0
  -40.1382  -44.5275   16.5267 H   0  0  0  0  0  0  0  0  0  0  0  0
  -37.8173  -44.7674   16.1355 H   0  0  0  0  0  0  0  0  0  0  0  0
  -35.5459  -45.9924   18.4884 H   0  0  0  0  0  0  0  0  0  0  0  0
  -33.0478  -44.3329   15.1894 H   0  0  0  0  0  0  0  0  0  0  0  0
  -33.4012  -46.7631   18.4732 H   0  0  0  0  0  0  0  0  0  0  0  0
  -37.2989  -45.9579   20.0437 H   0  0  0  0  0  0  0  0  0  0  0  0
  -40.4979  -43.8188   21.2919 H   0  0  0  0  0  0  0  0  0  0  0  0
  -40.0608  -42.1064   22.8196 H   0  0  0  0  0  0  0  0  0  0  0  0
  -39.5852  -42.9504   24.5172 H   0  0  0  0  0  0  0  0  0  0  0  0
  -37.0805  -44.6895   23.2433 H   0  0  0  0  0  0  0  0  0  0  0  0
  -38.4738  -45.2583   24.4845 H   0  0  0  0  0  0  0  0  0  0  0  0
  -36.9076  -47.1601   24.0994 H   0  0  0  0  0  0  0  0  0  0  0  0
  -37.4171  -48.3549   22.9574 H   0  0  0  0  0  0  0  0  0  0  0  0
  -38.9701  -47.7404   21.2768 H   0  0  0  0  0  0  0  0  0  0  0  0
  2  1  1  0
  2  3  1  0
  2 18  1  0
  3  4  2  0
  4  5  1  0
  5  6  2  0
  6  7  1  0
  7  8  1  0
  7 17  2  0
  8  9  1  0
  9 10  2  0
  9 11  1  0
 11 12  2  0
 12 13  1  0
 13 14  1  0
 14 15  1  0
 14 16  2  0
 16 11  1  0
 17  3  1  0
 18 19  2  0
 19 20  1  0
 19 22  1  0
 20 21  1  0
 22 23  1  0
 23 24  1  0
 23 25  2  0
 25  2  1  0
  1 26  1  0
  1 27  1  0
  1 28  1  0
  4 29  1  0
  5 30  1  0
  6 31  1  0
  8 32  1  0
 12 33  1  0
 16 34  1  0
 17 35  1  0
 18 36  1  0
 20 37  1  0
 20 38  1  0
 22 39  1  0
 22 40  1  0
 24 41  1  0
 24 42  1  0
 25 43  1  0
M  CHG  1  25   1
M  END
>  <Alignment>
1

>  <Alns>
1

>  <Conformer>
1

>  <Confs>
1

>  <Excl Vol Pen>
0

>  <FScore>
-108.117

>  <FScore+P>
-104.291

>  <FSim>
0.752

>  <Field Penalty>
0

>  <Filename>
intermediate_bace_combination_06_biphenyl~45_amide_series.sdf

>  <Ref>
lig_45

>  <SScore>
207.263

>  <SScore+P>
195.784

>  <SSim>
0.903

>  <Sim>
0.828

>  <_cresset_fieldpoints2>
 2
    -5     -39.992920     -47.317085      23.941822     -4.1673
    -5     -39.249626     -47.811199      17.013575     -2.8378
    -5     -37.809906     -42.996403      20.511795     -6.6539
    -5     -36.487297     -42.828148      15.139846    -13.0295
    -5     -29.745058     -45.247604      15.267361     -2.1339
    -6     -42.317722     -43.405113      20.047361      3.9215
    -6     -42.134884     -42.622845      22.177425      4.1914
    -6     -38.060284     -49.425995      21.441849     10.3602
    -6     -34.882919     -47.129589      19.878460     12.1465
    -6     -32.058464     -43.363220      13.634908      2.1863
    -6     -39.524078     -44.253471      26.298786      3.1599
    -6     -35.640034     -47.535305      25.484369      6.5864
    -6     -36.024326     -49.091557      24.237228      7.3842
    -7     -42.600494     -47.057854      17.985216     -1.6032
    -7     -42.345558     -43.111908      19.798754     -1.9624
    -7     -38.453239     -42.364613      20.030579     -3.1979
    -7     -39.441807     -48.660675      18.751276     -2.2945
    -7     -34.873734     -43.961216      19.854486     -2.4612
    -7     -35.896183     -48.094353      16.874090     -2.3393
    -7     -36.358101     -43.511192      20.961382     -2.6997
    -7     -30.258026     -46.447201      14.298260     -1.2658
    -7     -29.609972     -43.933441      16.226185     -1.2659
    -7     -32.209843     -43.171959      18.929384     -1.3928
    -7     -35.512821     -46.433907      21.509739     -2.6462
    -7     -33.353065     -48.280758      14.915556     -1.3881
    -7     -37.499271     -43.620842      26.250357     -1.4046
    -7     -40.452805     -40.260147      24.998611     -0.8604
    -7     -41.322929     -45.381905      24.294334     -2.4497
    -7     -40.191402     -48.395943      23.565725     -2.1702
    -8     -40.275307     -45.367554      20.147350      5.7269
    -8     -38.747669     -45.240284      18.299280      7.0745
    -8     -39.002598     -44.940884      22.402225      5.4202
    -8     -33.173470     -45.784889      17.126091      4.8947
    -8     -32.124607     -46.669281      17.923195      4.2917
    -8     -38.631229     -43.755009      23.200632      5.5776

$$$$
intermediate_06_biphenyl_67_amide_series
  xed2sdf           3D
 
 49 51  0  0  1  0  0  0  0  0999 V2000
  -28.9541  -46.1436   16.5020 C   0  0  0  0  0  0  0  0  0  0  0  0
  -29.9335  -46.7547   17.3614 O   0  0  0  0  0  0  0  0  0  0  0  0
  -31.1871  -46.3598   17.2276 C   0  0  0  0  0  0  0  0  0  0  0  0
  -32.1503  -46.8991   18.0673 C   0  0  0  0  0  0  0  0  0  0  0  0
  -33.4367  -46.5553   18.0096 N   0  0  0  0  0  0  0  0  0  0  0  0
  -33.7359  -45.6393   17.0642 C   0  0  0  0  0  0  0  0  0  0  0  0
  -35.1498  -45.2095   16.9660 C   0  0  0  0  0  0  0  0  0  0  0  0
  -35.4661  -44.4462   16.0579 O   0  0  0  0  0  0  0  0  0  0  0  0
  -35.9952  -45.6825   17.9077 N   0  0  0  0  0  0  0  0  0  0  0  0
  -37.3580  -45.3992   18.0922 C   0  0  0  0  0  0  0  0  0  0  0  0
  -38.1187  -44.7902   17.1091 C   0  0  0  0  0  0  0  0  0  0  0  0
  -39.4479  -44.5261   17.3331 C   0  0  0  0  0  0  0  0  0  0  0  0
  -40.0303  -44.8678   18.5333 C   0  0  0  0  0  0  0  0  0  0  0  0
  -39.2958  -45.4846   19.5276 C   0  0  0  0  0  0  0  0  0  0  0  0
  -39.9351  -45.8599   20.8735 C   0  0  0  0  0  0  0  0  0  0  0  0
  -41.2779  -46.5955   20.6752 C   0  0  0  0  0  0  0  0  0  0  0  0
  -39.0793  -46.8195   21.5769 N   0  3  0  0  0  0  0  0  0  0  0  0
  -38.2891  -46.4732   22.6025 C   0  0  0  0  0  0  0  0  0  0  0  0
  -37.4640  -47.3357   23.2025 N   0  0  0  0  0  0  0  0  0  0  0  0
  -38.2859  -45.0658   23.1629 C   0  0  0  0  0  0  0  0  0  0  0  0
  -38.8876  -44.0946   22.2364 N   0  0  0  0  0  0  0  0  0  0  0  0
  -39.0666  -42.7957   22.9035 C   0  0  0  0  0  0  0  0  0  0  0  0
  -37.8412  -42.2758   23.3081 F   0  0  0  0  0  0  0  0  0  0  0  0
  -40.1790  -44.5998   21.7440 C   0  0  0  0  0  0  0  0  0  0  0  0
  -41.0393  -44.8833   22.8050 F   0  0  0  0  0  0  0  0  0  0  0  0
  -37.9632  -45.7394   19.2887 C   0  0  0  0  0  0  0  0  0  0  0  0
  -32.7759  -45.1057   16.2223 C   0  0  0  0  0  0  0  0  0  0  0  0
  -31.4816  -45.4482   16.2817 N   0  0  0  0  0  0  0  0  0  0  0  0
  -40.7090  -43.7732   21.0532 H   0  0  0  0  0  0  0  0  0  0  0  0
  -27.8764  -46.6154   16.7384 H   0  0  0  0  0  0  0  0  0  0  0  0
  -29.2287  -46.3485   15.3515 H   0  0  0  0  0  0  0  0  0  0  0  0
  -28.9160  -44.9603   16.7011 H   0  0  0  0  0  0  0  0  0  0  0  0
  -31.8692  -47.5747   18.7494 H   0  0  0  0  0  0  0  0  0  0  0  0
  -35.6383  -46.2283   18.5013 H   0  0  0  0  0  0  0  0  0  0  0  0
  -37.7048  -44.5405   16.2348 H   0  0  0  0  0  0  0  0  0  0  0  0
  -39.9946  -44.0832   16.6225 H   0  0  0  0  0  0  0  0  0  0  0  0
  -40.9974  -44.6660   18.6855 H   0  0  0  0  0  0  0  0  0  0  0  0
  -42.0977  -45.8350   20.2405 H   0  0  0  0  0  0  0  0  0  0  0  0
  -41.1238  -47.5010   19.9027 H   0  0  0  0  0  0  0  0  0  0  0  0
  -41.6639  -47.0436   21.7194 H   0  0  0  0  0  0  0  0  0  0  0  0
  -39.0611  -47.7677   21.2577 H   0  0  0  0  0  0  0  0  0  0  0  0
  -37.4133  -48.2825   22.8847 H   0  0  0  0  0  0  0  0  0  0  0  0
  -36.8943  -47.0419   23.9709 H   0  0  0  0  0  0  0  0  0  0  0  0
  -37.1556  -44.7324   23.3899 H   0  0  0  0  0  0  0  0  0  0  0  0
  -38.8934  -45.0923   24.1977 H   0  0  0  0  0  0  0  0  0  0  0  0
  -39.7831  -42.9071   23.8595 H   0  0  0  0  0  0  0  0  0  0  0  0
  -39.5607  -42.0121   22.1405 H   0  0  0  0  0  0  0  0  0  0  0  0
  -37.4172  -46.1810   20.0005 H   0  0  0  0  0  0  0  0  0  0  0  0
  -33.0603  -44.4308   15.5414 H   0  0  0  0  0  0  0  0  0  0  0  0
  1  2  1  0
  2  3  1  0
  3  4  2  0
  4  5  1  0
  5  6  2  0
  6  7  1  0
  6 27  1  0
  7  8  2  0
  7  9  1  0
  9 10  1  0
 10 11  2  0
 11 12  1  0
 12 13  2  0
 13 14  1  0
 14 15  1  0
 14 26  2  0
 15 16  1  0
 15 17  1  0
 17 18  2  0
 18 19  1  0
 18 20  1  0
 20 21  1  0
 21 22  1  0
 21 24  1  0
 22 23  1  0
 24 15  1  0
 24 25  1  0
 26 10  1  0
 27 28  2  0
 28  3  1  0
  1 30  1  0
  1 31  1  0
  1 32  1  0
  4 33  1  0
  9 34  1  0
 11 35  1  0
 12 36  1  0
 13 37  1  0
 16 38  1  0
 16 39  1  0
 16 40  1  0
 17 41  1  0
 19 42  1  0
 19 43  1  0
 20 44  1  0
 20 45  1  0
 22 46  1  0
 22 47  1  0
 24 29  1  0
 26 48  1  0
 27 49  1  0
M  CHG  1  17   1
M  END
>  <Alignment>
1

>  <Alns>
1

>  <Conformer>
1

>  <Confs>
1

>  <Excl Vol Pen>
0

>  <FScore>
-120.869

>  <FScore+P>
-118.338

>  <FSim>
0.8

>  <Field Penalty>
0

>  <Filename>
intermediate_bace_combination_06_biphenyl~67_amide_series.sdf

>  <Ref>
lig_67

>  <SScore>
230.943

>  <SScore+P>
223.353

>  <SSim>
0.946

>  <Sim>
0.873

>  <_cresset_fieldpoints2>
 2
    -5     -28.899906     -48.338852      18.553278     -2.4624
    -5     -37.272022     -43.441246      20.761347     -6.6394
    -5     -39.416824     -47.517605      16.785181     -2.7469
    -5     -36.001541     -43.064281      14.846050    -11.0783
    -5     -40.081272     -47.306538      23.890732     -5.0660
    -5     -30.570129     -44.398430      14.952943     -3.5853
    -6     -26.652805     -46.115070      14.671955      2.0589
    -6     -26.385181     -44.805153      15.983456      2.0682
    -6     -38.051506     -49.388699      21.393238     10.7231
    -6     -35.665100     -47.496704      19.935041      8.5562
    -6     -31.922966     -48.826855      20.330044      3.4773
    -6     -42.468170     -43.546993      19.741220      5.0831
    -6     -41.387779     -41.761162      20.938791      4.6076
    -6     -39.594971     -43.739948      26.001358      1.9534
    -6     -35.959145     -48.953636      24.115261      7.4036
    -7     -30.250975     -43.911243      14.513317     -1.4902
    -7     -31.360401     -47.388695      14.122923     -1.5157
    -7     -36.219379     -43.743000      20.960611     -2.8141
    -7     -35.946701     -48.204273      16.859947     -2.1036
    -7     -26.699986     -45.772537      14.188375     -0.6471
    -7     -34.959492     -44.582626      20.312107     -2.4118
    -7     -30.526400     -43.242161      17.982613     -1.5271
    -7     -35.533302     -46.129532      21.479811     -2.7054
    -7     -39.179604     -48.718647      18.699062     -2.2271
    -7     -39.715694     -48.231365      17.749069     -2.2609
    -7     -42.850723     -43.432583      19.811613     -2.0564
    -7     -40.347881     -48.071201      23.705091     -2.4873
    -7     -40.348686     -44.111305      26.023689     -1.4198
    -7     -38.891045     -43.576706      26.252216     -1.4284
    -7     -42.198780     -41.865807      22.054214     -1.5714
    -7     -36.844223     -45.166313      26.013676     -1.2134
    -7     -38.024597     -42.418137      19.902222     -3.2401
    -8     -28.345539     -45.781281      15.990189      2.4089
    -8     -32.566200     -46.019402      17.188360      2.7949
    -8     -33.727997     -45.040676      16.539967      3.2465
    -8     -31.739759     -47.448132      17.617579      2.2097
    -8     -38.735146     -45.129463      18.324638      7.0627
    -8     -31.529272     -46.527397      18.454071      2.2076
    -8     -40.386097     -45.458996      19.954407      5.6691
    -8     -40.900158     -45.461273      21.310955      5.4365
    -8     -38.355728     -43.483154      23.602657      3.3319
    -8     -38.881077     -42.168526      23.310476      3.4669
    -8     -39.580536     -44.342850      22.786167      3.5785

$$$$
intermediate_45_amide_series_11_spirocycles
  xed2sdf           3D
 
 30 31  0  0  1  0  0  0  0  0999 V2000
  -41.1076  -46.6056   20.9579 C   0  0  0  0  0  0  0  0  0  0  0  0
  -39.7589  -45.8644   20.8854 C   0  0  0  0  0  0  0  0  0  0  0  0
  -39.2537  -45.5488   19.4731 C   0  0  0  0  0  0  0  0  0  0  0  0
  -37.9469  -45.8315   19.1336 C   0  0  0  0  0  0  0  0  0  0  0  0
  -37.4551  -45.5418   17.8797 C   0  0  0  0  0  0  0  0  0  0  0  0
  -36.1799  -45.8222   17.5791 F   0  0  0  0  0  0  0  0  0  0  0  0
  -38.2749  -44.9608   16.9388 C   0  0  0  0  0  0  0  0  0  0  0  0
  -39.5788  -44.6701   17.2601 C   0  0  0  0  0  0  0  0  0  0  0  0
  -40.0636  -44.9588   18.5180 C   0  0  0  0  0  0  0  0  0  0  0  0
  -41.3354  -44.6525   18.8052 F   0  0  0  0  0  0  0  0  0  0  0  0
  -39.9034  -44.5576   21.6101 C   0  0  0  0  0  0  0  0  0  0  0  0
  -39.1136  -44.2287   22.7265 C   0  0  0  0  0  0  0  0  0  0  0  0
  -39.1439  -42.9363   23.5047 C   0  0  0  0  0  0  0  0  0  0  0  0
  -37.9343  -42.2584   23.3804 F   0  0  0  0  0  0  0  0  0  0  0  0
  -38.2357  -45.0848   23.2415 O   0  0  0  0  0  0  0  0  0  0  0  0
  -38.1144  -46.3164   22.6948 C   0  0  0  0  0  0  0  0  0  0  0  0
  -37.2334  -47.1270   23.3077 N   0  0  0  0  0  0  0  0  0  0  0  0
  -38.8227  -46.7194   21.6132 N   0  3  0  0  0  0  0  0  0  0  0  0
  -42.0193  -45.8648   20.7165 H   0  0  0  0  0  0  0  0  0  0  0  0
  -41.2510  -47.0339   22.0694 H   0  0  0  0  0  0  0  0  0  0  0  0
  -41.1068  -47.5190   20.1798 H   0  0  0  0  0  0  0  0  0  0  0  0
  -37.3441  -46.2521   19.8115 H   0  0  0  0  0  0  0  0  0  0  0  0
  -37.9224  -44.7492   16.0271 H   0  0  0  0  0  0  0  0  0  0  0  0
  -40.1770  -44.2452   16.5807 H   0  0  0  0  0  0  0  0  0  0  0  0
  -40.5714  -43.9025   21.2863 H   0  0  0  0  0  0  0  0  0  0  0  0
  -40.0143  -42.2411   23.0589 H   0  0  0  0  0  0  0  0  0  0  0  0
  -39.3707  -43.1645   24.6608 H   0  0  0  0  0  0  0  0  0  0  0  0
  -36.7257  -46.7985   24.1041 H   0  0  0  0  0  0  0  0  0  0  0  0
  -37.0836  -48.0566   22.9709 H   0  0  0  0  0  0  0  0  0  0  0  0
  -38.6893  -47.6536   21.2818 H   0  0  0  0  0  0  0  0  0  0  0  0
  2  1  1  0
  2  3  1  0
  2 11  1  0
  3  4  2  0
  4  5  1  0
  5  6  1  0
  5  7  2  0
  7  8  1  0
  8  9  2  0
  9  3  1  0
  9 10  1  0
 11 12  2  0
 12 13  1  0
 12 15  1  0
 13 14  1  0
 15 16  1  0
 16 17  1  0
 16 18  2  0
 18  2  1  0
  1 19  1  0
  1 20  1  0
  1 21  1  0
  4 22  1  0
  7 23  1  0
  8 24  1  0
 11 25  1  0
 13 26  1  0
 13 27  1  0
 17 28  1  0
 17 29  1  0
 18 30  1  0
M  CHG  1  18   1
M  END
>  <Alignment>
1

>  <Alns>
1

>  <Conformer>
1

>  <Confs>
1

>  <Excl Vol Pen>
0

>  <FScore>
-84.984

>  <FScore+P>
-84.645

>  <FSim>
0.762

>  <Field Penalty>
0

>  <Filename>
intermediate_bace_combination_45_amide_series~11_spirocycles.sdf

>  <Ref>
lig_45

>  <SScore>
150.536

>  <SScore+P>
149.517

>  <SSim>
0.802

>  <Sim>
0.782

>  <_cresset_fieldpoints2>
 2
    -5     -39.477821     -46.093559      24.598789     -4.7554
    -5     -34.212154     -45.374073      15.635874     -1.5174
    -5     -43.566673     -43.503731      17.540995     -1.1762
    -5     -36.572365     -44.427666      22.330362     -8.1450
    -6     -37.580288     -49.199005      21.498341     12.0766
    -6     -41.772209     -42.575748      24.432213      3.6940
    -6     -42.068108     -42.700424      22.617737      3.8304
    -6     -35.751991     -48.734398      24.238161      7.9582
    -6     -39.396133     -43.793453      14.430144      3.5684
    -7     -39.998020     -48.282803      17.824379     -2.3954
    -7     -40.534554     -46.105980      24.399805     -2.3661
    -7     -39.727352     -48.634880      23.446318     -1.9468
    -7     -38.367523     -42.453728      20.069767     -3.2079
    -7     -39.451920     -43.648701      14.039421     -1.0152
    -7     -40.303684     -40.500332      25.317753     -0.8418
    -7     -41.859890     -44.982178      23.776268     -2.1413
    -7     -38.928913     -45.727989      25.458977     -1.9743
    -7     -36.365562     -44.339100      21.451260     -2.9247
    -8     -40.315140     -45.313782      19.891504      6.0377
    -8     -38.764931     -45.250786      18.203810      7.2371
    -8     -39.005970     -43.004070      23.053888      4.5291
    -8     -39.646061     -43.483860      22.461355      4.5615

$$$$
intermediate_67_amide_series_1a_spirocycles
  xed2sdf           3D
 
 48 50  0  0  1  0  0  0  0  0999 V2000
  -33.1215  -47.2753   19.6394 C   0  0  0  0  0  0  0  0  0  0  0  0
  -33.6987  -46.3390   18.6670 N   0  0  0  0  0  0  0  0  0  0  0  0
  -33.3911  -46.7751   17.3100 C   0  0  0  0  0  0  0  0  0  0  0  0
  -33.8219  -45.5670   16.4796 C   0  0  0  0  0  0  0  0  0  0  0  0
  -35.2934  -45.2280   16.6028 C   0  0  0  0  0  0  0  0  0  0  0  0
  -35.8287  -44.6855   15.6484 O   0  0  0  0  0  0  0  0  0  0  0  0
  -35.9096  -45.5587   17.7716 N   0  0  0  0  0  0  0  0  0  0  0  0
  -37.2873  -45.3199   18.0235 C   0  0  0  0  0  0  0  0  0  0  0  0
  -38.0942  -44.7086   17.0771 C   0  0  0  0  0  0  0  0  0  0  0  0
  -39.4247  -44.4788   17.3194 C   0  0  0  0  0  0  0  0  0  0  0  0
  -39.9855  -44.8523   18.5191 C   0  0  0  0  0  0  0  0  0  0  0  0
  -41.2858  -44.6077   18.7258 F   0  0  0  0  0  0  0  0  0  0  0  0
  -39.2190  -45.4674   19.4930 C   0  0  0  0  0  0  0  0  0  0  0  0
  -39.8191  -45.8778   20.8505 C   0  0  0  0  0  0  0  0  0  0  0  0
  -41.0957  -46.7344   20.6962 C   0  0  0  0  0  0  0  0  0  0  0  0
  -38.9047  -46.7667   21.5759 N   0  3  0  0  0  0  0  0  0  0  0  0
  -38.1719  -46.3813   22.6508 C   0  0  0  0  0  0  0  0  0  0  0  0
  -37.3959  -47.2542   23.3249 N   0  0  0  0  0  0  0  0  0  0  0  0
  -38.1807  -45.1234   23.1232 O   0  0  0  0  0  0  0  0  0  0  0  0
  -38.8585  -44.1059   22.3541 C   0  0  0  0  0  0  0  0  0  0  0  0
  -39.1677  -42.8543   23.2012 C   0  0  0  0  0  0  0  0  0  0  0  0
  -37.9922  -42.1801   23.5260 F   0  0  0  0  0  0  0  0  0  0  0  0
  -40.1572  -44.6442   21.7249 C   0  0  0  0  0  0  0  0  0  0  0  0
  -41.0856  -44.9637   22.7182 F   0  0  0  0  0  0  0  0  0  0  0  0
  -37.8850  -45.6919   19.2228 C   0  0  0  0  0  0  0  0  0  0  0  0
  -35.1543  -46.2539   18.8516 C   0  0  0  0  0  0  0  0  0  0  0  0
  -38.1400  -43.7851   21.4482 H   0  0  0  0  0  0  0  0  0  0  0  0
  -40.6422  -43.7857   21.0412 H   0  0  0  0  0  0  0  0  0  0  0  0
  -31.9261  -47.2774   19.5346 H   0  0  0  0  0  0  0  0  0  0  0  0
  -33.4115  -46.9373   20.7539 H   0  0  0  0  0  0  0  0  0  0  0  0
  -33.5317  -48.3854   19.4398 H   0  0  0  0  0  0  0  0  0  0  0  0
  -32.2127  -46.9518   17.1662 H   0  0  0  0  0  0  0  0  0  0  0  0
  -34.0046  -47.7622   17.0101 H   0  0  0  0  0  0  0  0  0  0  0  0
  -33.1817  -44.6152   16.8325 H   0  0  0  0  0  0  0  0  0  0  0  0
  -33.5767  -45.7877   15.3259 H   0  0  0  0  0  0  0  0  0  0  0  0
  -37.7090  -44.4278   16.2010 H   0  0  0  0  0  0  0  0  0  0  0  0
  -39.9888  -44.0365   16.6224 H   0  0  0  0  0  0  0  0  0  0  0  0
  -42.0490  -46.0478   20.4544 H   0  0  0  0  0  0  0  0  0  0  0  0
  -40.9444  -47.5420   19.8213 H   0  0  0  0  0  0  0  0  0  0  0  0
  -41.2994  -47.3190   21.7243 H   0  0  0  0  0  0  0  0  0  0  0  0
  -38.8119  -47.7103   21.2558 H   0  0  0  0  0  0  0  0  0  0  0  0
  -37.3435  -48.2086   23.0309 H   0  0  0  0  0  0  0  0  0  0  0  0
  -36.8696  -46.9539   24.1220 H   0  0  0  0  0  0  0  0  0  0  0  0
  -39.7473  -43.1715   24.2032 H   0  0  0  0  0  0  0  0  0  0  0  0
  -39.8609  -42.1056   22.5698 H   0  0  0  0  0  0  0  0  0  0  0  0
  -37.3334  -46.1410   19.9234 H   0  0  0  0  0  0  0  0  0  0  0  0
  -35.2963  -45.6679   19.8894 H   0  0  0  0  0  0  0  0  0  0  0  0
  -35.6263  -47.3532   18.9510 H   0  0  0  0  0  0  0  0  0  0  0  0
  1  2  1  0
  2  3  1  0
  3  4  1  0
  4  5  1  0
  5  6  2  0
  5  7  1  0
  7  8  1  0
  7 26  1  0
  8  9  2  0
  9 10  1  0
 10 11  2  0
 11 12  1  0
 11 13  1  0
 13 14  1  0
 13 25  2  0
 14 15  1  0
 14 16  1  0
 16 17  2  0
 17 18  1  0
 17 19  1  0
 19 20  1  0
 20 21  1  0
 20 23  1  0
 21 22  1  0
 23 14  1  0
 23 24  1  0
 25  8  1  0
 26  2  1  0
  1 29  1  0
  1 30  1  0
  1 31  1  0
  3 32  1  0
  3 33  1  0
  4 34  1  0
  4 35  1  0
  9 36  1  0
 10 37  1  0
 15 38  1  0
 15 39  1  0
 15 40  1  0
 16 41  1  0
 18 42  1  0
 18 43  1  0
 20 27  1  0
 21 44  1  0
 21 45  1  0
 23 28  1  0
 25 46  1  0
 26 47  1  0
 26 48  1  0
M  CHG  1  16   1
M  END
>  <Alignment>
1

>  <Alns>
1

>  <Conformer>
1

>  <Confs>
1

>  <Excl Vol Pen>
0

>  <FScore>
-114.249

>  <FScore+P>
-112.854

>  <FSim>
0.781

>  <Field Penalty>
0

>  <Filename>
intermediate_bace_combination_67_amide_series~1a_spirocycles.sdf

>  <Ref>
lig_67

>  <SScore>
198.147

>  <SScore+P>
193.963

>  <SSim>
0.839

>  <Sim>
0.81

>  <_cresset_fieldpoints2>
 2
    -5     -36.455227     -44.308815      24.128048     -5.4827
    -5     -32.803963     -44.481289      19.269548     -2.8621
    -5     -35.432861     -44.051342      14.010862    -14.3479
    -5     -43.324085     -43.691746      17.043222     -1.3847
    -5     -39.517086     -46.255604      24.589617     -7.5639
    -5     -37.214409     -44.438869      24.910065     -5.4915
    -6     -35.872326     -49.051945      23.930111      8.1323
    -6     -35.893353     -43.951710      20.975828      2.8541
    -6     -37.293339     -48.867222      21.113113     12.7699
    -6     -31.956614     -47.623562      14.890994      3.2408
    -6     -40.912773     -43.065155      15.058233      1.8010
    -6     -39.632133     -42.011909      20.315664      5.3400
    -7     -35.692177     -44.859768      22.139044     -2.9973
    -7     -38.787991     -48.744137      18.820599     -2.3982
    -7     -38.934982     -42.005836      19.811296     -3.3417
    -7     -36.413799     -48.461609      20.874359     -2.6118
    -7     -31.929504     -49.669731      17.651197     -1.2909
    -7     -39.615936     -48.123009      17.570953     -2.4366
    -7     -34.916367     -43.078926      18.692345     -2.4667
    -7     -36.051216     -43.145161      20.260052     -2.7031
    -7     -43.381645     -43.689583      20.923599     -1.7825
    -7     -36.538471     -48.000507      16.364647     -2.6522
    -7     -40.107487     -48.041809      23.841877     -2.3509
    -7     -39.341877     -45.673920      25.420855     -2.2086
    -7     -42.246861     -41.974049      21.402702     -1.7530
    -7     -44.060734     -46.170021      22.089613     -1.2012
    -8     -33.888020     -46.940418      18.553591      2.9959
    -8     -38.687981     -45.078682      18.291651      7.1143
    -8     -34.422829     -47.145130      19.633224      2.6890
    -8     -33.936893     -46.037479      16.557745      4.1663
    -8     -32.841179     -47.808300      20.133614      2.5545
    -8     -40.332687     -45.325340      19.818712      6.0634
    -8     -39.950844     -43.823963      22.456465      5.3758
    -8     -40.768501     -45.474480      21.263956      5.6605
    -8     -38.910194     -42.987362      22.780430      4.7677

$$$$
intermediate_69_amide_series_11_spirocycles
  xed2sdf           3D
 
 39 41  0  0  1  0  0  0  0  0999 V2000
  -41.6716  -44.6549   18.5187 C   0  0  0  0  0  0  0  0  0  0  0  0
  -40.1823  -44.9562   18.4297 C   0  0  0  0  0  0  0  0  0  0  0  0
  -39.6073  -44.6614   17.2115 C   0  0  0  0  0  0  0  0  0  0  0  0
  -38.2714  -44.8872   16.9867 C   0  0  0  0  0  0  0  0  0  0  0  0
  -37.4996  -45.4145   17.9910 C   0  0  0  0  0  0  0  0  0  0  0  0
  -38.0728  -45.7090   19.2050 C   0  0  0  0  0  0  0  0  0  0  0  0
  -39.4154  -45.4941   19.4567 C   0  0  0  0  0  0  0  0  0  0  0  0
  -39.9186  -45.8668   20.8709 C   0  0  0  0  0  0  0  0  0  0  0  0
  -41.2548  -46.6441   20.8809 C   0  0  0  0  0  0  0  0  0  0  0  0
  -39.0025  -46.8358   21.4857 N   0  3  0  0  0  0  0  0  0  0  0  0
  -38.0930  -46.5163   22.4405 C   0  0  0  0  0  0  0  0  0  0  0  0
  -37.2943  -47.4521   22.9928 N   0  0  0  0  0  0  0  0  0  0  0  0
  -37.9360  -45.2673   22.9112 O   0  0  0  0  0  0  0  0  0  0  0  0
  -38.6563  -44.1902   22.2708 C   0  0  0  0  0  0  0  0  0  0  0  0
  -38.7664  -42.8988   23.1186 C   0  0  0  0  0  0  0  0  0  0  0  0
  -39.6289  -41.9076   22.6620 F   0  0  0  0  0  0  0  0  0  0  0  0
  -38.5057  -42.8751   24.6341 C   0  0  0  0  0  0  0  0  0  0  0  0
  -37.4500  -42.3196   23.6593 C   0  0  0  0  0  0  0  0  0  0  0  0
  -40.0546  -44.6360   21.8033 C   0  0  0  0  0  0  0  0  0  0  0  0
  -40.8676  -44.9200   22.9027 F   0  0  0  0  0  0  0  0  0  0  0  0
  -38.0473  -43.9048   21.2775 H   0  0  0  0  0  0  0  0  0  0  0  0
  -40.5500  -43.7240   21.2052 H   0  0  0  0  0  0  0  0  0  0  0  0
  -42.2823  -45.6875   18.5048 H   0  0  0  0  0  0  0  0  0  0  0  0
  -41.9343  -44.0329   19.5080 H   0  0  0  0  0  0  0  0  0  0  0  0
  -42.0428  -43.9948   17.5868 H   0  0  0  0  0  0  0  0  0  0  0  0
  -40.1684  -44.2779   16.4783 H   0  0  0  0  0  0  0  0  0  0  0  0
  -37.8652  -44.6694   16.0993 H   0  0  0  0  0  0  0  0  0  0  0  0
  -36.5256  -45.5837   17.8408 H   0  0  0  0  0  0  0  0  0  0  0  0
  -37.5005  -46.0922   19.9298 H   0  0  0  0  0  0  0  0  0  0  0  0
  -42.1940  -45.8998   20.8482 H   0  0  0  0  0  0  0  0  0  0  0  0
  -41.2970  -47.4019   19.9510 H   0  0  0  0  0  0  0  0  0  0  0  0
  -41.3288  -47.2796   21.8964 H   0  0  0  0  0  0  0  0  0  0  0  0
  -39.0405  -47.7851   21.1713 H   0  0  0  0  0  0  0  0  0  0  0  0
  -37.3578  -48.4044   22.6945 H   0  0  0  0  0  0  0  0  0  0  0  0
  -36.6345  -47.2006   23.7027 H   0  0  0  0  0  0  0  0  0  0  0  0
  -39.0915  -42.0344   25.2586 H   0  0  0  0  0  0  0  0  0  0  0  0
  -38.1995  -43.9067   25.1648 H   0  0  0  0  0  0  0  0  0  0  0  0
  -36.4793  -43.0072   23.5020 H   0  0  0  0  0  0  0  0  0  0  0  0
  -37.3518  -41.1238   23.6294 H   0  0  0  0  0  0  0  0  0  0  0  0
  1  2  1  0
  2  3  2  0
  3  4  1  0
  4  5  2  0
  5  6  1  0
  6  7  2  0
  7  2  1  0
  7  8  1  0
  8  9  1  0
  8 10  1  0
 10 11  2  0
 11 12  1  0
 11 13  1  0
 13 14  1  0
 14 15  1  0
 14 19  1  0
 15 16  1  0
 15 17  1  0
 17 18  1  0
 18 15  1  0
 19  8  1  0
 19 20  1  0
  1 23  1  0
  1 24  1  0
  1 25  1  0
  3 26  1  0
  4 27  1  0
  5 28  1  0
  6 29  1  0
  9 30  1  0
  9 31  1  0
  9 32  1  0
 10 33  1  0
 12 34  1  0
 12 35  1  0
 14 21  1  0
 17 36  1  0
 17 37  1  0
 18 38  1  0
 18 39  1  0
 19 22  1  0
M  CHG  1  10   1
M  END
>  <Alignment>
1

>  <Alns>
1

>  <Conformer>
1

>  <Confs>
1

>  <Excl Vol Pen>
0

>  <FScore>
-104.524

>  <FScore+P>
-102.546

>  <FSim>
0.755

>  <Field Penalty>
0

>  <Filename>
intermediate_bace_combination_69_amide_series~11_spirocycles.sdf

>  <Ref>
lig_69

>  <SScore>
175.008

>  <SScore+P>
169.075

>  <SSim>
0.764

>  <Sim>
0.76

>  <_cresset_fieldpoints2>
 2
    -5     -39.534523     -47.687820      17.016293     -2.7974
    -5     -38.519402     -42.374210      18.933161     -3.2173
    -5     -41.932144     -42.629295      24.103128     -4.0537
    -5     -39.241879     -46.415798      24.474150     -7.8525
    -5     -35.916439     -45.471115      21.938276     -3.5399
    -6     -41.701374     -43.532475      15.265799      3.0625
    -6     -35.933846     -49.252350      23.768887      7.5819
    -6     -38.263165     -49.520069      21.396734     11.1681
    -6     -37.245705     -40.308533      26.048592      1.5580
    -6     -35.971146     -43.061581      20.990715      2.5515
    -6     -43.706051     -47.360184      19.203918      2.5935
    -7     -38.794201     -42.169262      19.541544     -3.4771
    -7     -39.344959     -43.335667      14.131270     -1.0091
    -7     -35.203426     -44.964813      15.528759     -0.9690
    -7     -35.656487     -45.000237      21.437574     -2.8353
    -7     -36.626408     -48.357239      20.304760     -2.1260
    -7     -39.969673     -47.987228      23.930195     -2.3781
    -7     -42.898197     -42.811813      21.499598     -2.0388
    -7     -44.174866     -47.070877      19.493814     -1.3167
    -7     -39.042000     -46.355377      25.170221     -2.5064
    -7     -40.017487     -48.264614      17.814196     -2.4277
    -7     -35.925198     -45.112141      24.815948     -2.0760
    -7     -41.771683     -42.648369      25.054432     -1.5933
    -7     -39.028797     -39.435097      24.794325     -1.3785
    -7     -43.854977     -46.287941      22.869652     -1.1866
    -8     -38.848217     -45.182846      18.218885      7.2050
    -8     -40.546883     -45.412296      19.724350      5.7276
    -8     -40.781059     -45.431240      21.457916      5.6284
    -8     -38.579750     -42.652859      23.404634      6.0002
    -8     -39.594292     -43.546619      22.421005      5.6573
    -8     -39.969250     -44.780525      21.758776      5.3763

$$$$
intermediate_74_amide_series_32_spirocycles
  xed2sdf           3D
 
 42 45  0  0  1  0  0  0  0  0999 V2000
  -36.9557  -44.4844   23.5404 C   0  0  0  0  0  0  0  0  0  0  0  0
  -37.9358  -45.1158   22.6712 N   0  0  0  0  0  0  0  0  0  0  0  0
  -38.0328  -46.4650   22.4816 C   0  0  0  0  0  0  0  0  0  0  0  0
  -37.2571  -47.4102   23.0366 N   0  0  0  0  0  0  0  0  0  0  0  0
  -39.0448  -46.6949   21.6443 N   0  3  0  0  0  0  0  0  0  0  0  0
  -39.6730  -45.4580   21.1987 C   0  0  0  0  0  0  0  0  0  0  0  0
  -41.1367  -45.3778   21.6876 C   0  0  0  0  0  0  0  0  0  0  0  0
  -42.0717  -46.1369   20.7270 C   0  0  0  0  0  0  0  0  0  0  0  0
  -41.9777  -45.5031   19.3257 C   0  0  0  0  0  0  0  0  0  0  0  0
  -40.5529  -45.3066   18.8253 C   0  0  0  0  0  0  0  0  0  0  0  0
  -40.3527  -45.1418   17.4734 C   0  0  0  0  0  0  0  0  0  0  0  0
  -39.0862  -44.9555   16.9775 C   0  0  0  0  0  0  0  0  0  0  0  0
  -37.9885  -44.9311   17.8207 C   0  0  0  0  0  0  0  0  0  0  0  0
  -36.6734  -44.7379   17.2237 C   0  0  0  0  0  0  0  0  0  0  0  0
  -35.5230  -44.8310   17.9921 C   0  0  0  0  0  0  0  0  0  0  0  0
  -34.3026  -44.6496   17.4070 C   0  0  0  0  0  0  0  0  0  0  0  0
  -34.2493  -44.3776   16.0647 C   0  0  0  0  0  0  0  0  0  0  0  0
  -35.4212  -44.2980   15.3554 C   0  0  0  0  0  0  0  0  0  0  0  0
  -36.6433  -44.4722   15.8959 N   0  0  0  0  0  0  0  0  0  0  0  0
  -38.2074  -45.0923   19.1815 C   0  0  0  0  0  0  0  0  0  0  0  0
  -39.4743  -45.2769   19.6906 C   0  0  0  0  0  0  0  0  0  0  0  0
  -38.8497  -44.4473   21.9905 C   0  0  0  0  0  0  0  0  0  0  0  0
  -39.0099  -43.2153   22.0385 O   0  0  0  0  0  0  0  0  0  0  0  0
  -35.8531  -44.8397   23.2276 H   0  0  0  0  0  0  0  0  0  0  0  0
  -37.1696  -44.7973   24.6789 H   0  0  0  0  0  0  0  0  0  0  0  0
  -37.0343  -43.2918   23.4335 H   0  0  0  0  0  0  0  0  0  0  0  0
  -36.5188  -47.1505   23.6589 H   0  0  0  0  0  0  0  0  0  0  0  0
  -37.4185  -48.3746   22.8271 H   0  0  0  0  0  0  0  0  0  0  0  0
  -39.3340  -47.6064   21.3520 H   0  0  0  0  0  0  0  0  0  0  0  0
  -41.2174  -45.8429   22.7909 H   0  0  0  0  0  0  0  0  0  0  0  0
  -41.4755  -44.2270   21.7158 H   0  0  0  0  0  0  0  0  0  0  0  0
  -43.2033  -46.0768   21.1215 H   0  0  0  0  0  0  0  0  0  0  0  0
  -41.7249  -47.2841   20.6674 H   0  0  0  0  0  0  0  0  0  0  0  0
  -42.5842  -46.1994   18.5587 H   0  0  0  0  0  0  0  0  0  0  0  0
  -42.5080  -44.4276   19.3665 H   0  0  0  0  0  0  0  0  0  0  0  0
  -41.1336  -45.1579   16.8490 H   0  0  0  0  0  0  0  0  0  0  0  0
  -38.9552  -44.8379   15.9930 H   0  0  0  0  0  0  0  0  0  0  0  0
  -35.5776  -45.0319   18.9681 H   0  0  0  0  0  0  0  0  0  0  0  0
  -33.4641  -44.7145   17.9477 H   0  0  0  0  0  0  0  0  0  0  0  0
  -33.3700  -44.2396   15.6087 H   0  0  0  0  0  0  0  0  0  0  0  0
  -35.3647  -44.0990   14.3772 H   0  0  0  0  0  0  0  0  0  0  0  0
  -37.4346  -45.0751   19.8131 H   0  0  0  0  0  0  0  0  0  0  0  0
  1  2  1  0
  2  3  1  0
  3  4  1  0
  3  5  2  0
  6  5  1  0
  6  7  1  0
  6 22  1  0
  7  8  1  0
  8  9  1  0
  9 10  1  0
 10 11  2  0
 11 12  1  0
 12 13  2  0
 13 14  1  0
 13 20  1  0
 14 15  2  0
 15 16  1  0
 16 17  2  0
 17 18  1  0
 18 19  2  0
 19 14  1  0
 20 21  2  0
 21  6  1  0
 21 10  1  0
 22  2  1  0
 22 23  2  0
  1 24  1  0
  1 25  1  0
  1 26  1  0
  4 27  1  0
  4 28  1  0
  5 29  1  0
  7 30  1  0
  7 31  1  0
  8 32  1  0
  8 33  1  0
  9 34  1  0
  9 35  1  0
 11 36  1  0
 12 37  1  0
 15 38  1  0
 16 39  1  0
 17 40  1  0
 18 41  1  0
 20 42  1  0
M  CHG  1   5   1
M  END
>  <Alignment>
1

>  <Alns>
1

>  <Conformer>
1

>  <Confs>
1

>  <Excl Vol Pen>
0

>  <FScore>
-134.235

>  <FScore+P>
-132.609

>  <FSim>
0.891

>  <Field Penalty>
0

>  <Filename>
intermediate_bace_combination_74_amide_series~32_spirocycles.sdf

>  <Ref>
lig_32

>  <SScore>
192.277

>  <SScore+P>
187.401

>  <SSim>
0.906

>  <Sim>
0.899

>  <_cresset_fieldpoints2>
 2
    -5     -39.935268     -42.240864      20.899332    -19.0700
    -5     -37.462502     -45.696175      14.672840     -7.9841
    -5     -37.710178     -42.996456      15.305023     -9.4787
    -6     -38.727036     -49.365341      21.802567     12.1887
    -6     -35.877178     -49.051781      23.978035      9.0625
    -6     -43.165657     -45.538555      16.327810      3.0297
    -6     -35.316437     -45.539135      20.940516      6.1419
    -6     -35.149624     -46.485458      24.819946      9.2715
    -6     -33.051670     -43.820271      13.443363      3.3157
    -6     -31.377533     -44.530468      17.308901      3.6664
    -7     -35.640556     -46.388020      20.974285     -3.1617
    -7     -40.466366     -42.248409      20.254082     -2.9085
    -7     -34.923904     -46.232159      25.490105     -0.9287
    -7     -39.842968     -48.472954      18.993864     -2.6990
    -7     -39.684269     -45.810593      24.799469     -2.3081
    -7     -40.181858     -48.005489      23.733917     -2.1869
    -7     -43.934223     -43.409428      21.307192     -1.5733
    -7     -45.163094     -45.053570      19.597908     -1.2138
    -7     -43.451847     -44.033878      16.816505     -1.4919
    -7     -37.238499     -47.228775      15.212848     -1.9333
    -7     -30.953651     -44.365150      16.911333     -0.9524
    -7     -37.875095     -41.960724      15.952969     -1.9208
    -7     -32.996906     -43.678028      12.992189     -0.9059
    -7     -36.479378     -42.919945      20.729252     -2.9195
    -8     -36.385075     -44.139900      24.044838      2.4657
    -8     -40.882645     -45.487988      20.232975      6.6859
    -8     -35.085495     -44.592728      16.910881      5.5868
    -8     -39.277111     -45.117954      18.332510      7.1915
    -8     -37.778049     -45.032265      22.785913      2.0834
    -8     -37.034634     -44.944260      18.366566      5.4718

$$$$
intermediate_81_amide_series_1a_spirocycles
  xed2sdf           3D
 
 35 37  0  0  1  0  0  0  0  0999 V2000
  -41.2348  -46.8455   20.8258 C   0  0  0  0  0  0  0  0  0  0  0  0
  -39.9956  -45.9376   20.9709 C   0  0  0  0  0  0  0  0  0  0  0  0
  -39.3972  -45.5174   19.6164 C   0  0  0  0  0  0  0  0  0  0  0  0
  -38.0469  -45.6746   19.3872 C   0  0  0  0  0  0  0  0  0  0  0  0
  -37.4554  -45.2957   18.1958 C   0  0  0  0  0  0  0  0  0  0  0  0
  -36.0737  -45.4754   18.0184 N   0  0  0  0  0  0  0  0  0  0  0  0
  -35.3214  -45.0912   16.9731 C   0  0  0  0  0  0  0  0  0  0  0  0
  -35.7076  -44.4938   15.9786 O   0  0  0  0  0  0  0  0  0  0  0  0
  -33.4043  -45.5629   17.1248 Br  0  0  0  0  0  0  0  0  0  0  0  0
  -38.2458  -44.7442   17.2038 C   0  0  0  0  0  0  0  0  0  0  0  0
  -39.5925  -44.5781   17.4116 C   0  0  0  0  0  0  0  0  0  0  0  0
  -40.1641  -44.9587   18.6069 C   0  0  0  0  0  0  0  0  0  0  0  0
  -41.4796  -44.7732   18.7762 F   0  0  0  0  0  0  0  0  0  0  0  0
  -40.4264  -44.6896   21.7977 C   0  0  0  0  0  0  0  0  0  0  0  0
  -39.2535  -44.0893   22.4403 N   0  0  0  0  0  0  0  0  0  0  0  0
  -39.0366  -42.8019   22.8091 C   0  0  0  0  0  0  0  0  0  0  0  0
  -37.8209  -42.7640   23.4029 N   0  0  0  0  0  0  0  0  0  0  0  0
  -37.2979  -43.9828   23.4084 N   0  0  0  0  0  0  0  0  0  0  0  0
  -38.1723  -44.8128   22.8150 C   0  0  0  0  0  0  0  0  0  0  0  0
  -38.1073  -46.2719   22.5387 C   0  0  0  0  0  0  0  0  0  0  0  0
  -37.1588  -47.0129   23.1248 N   0  0  0  0  0  0  0  0  0  0  0  0
  -39.0327  -46.7844   21.7064 N   0  3  0  0  0  0  0  0  0  0  0  0
  -42.1986  -46.2190   20.4839 H   0  0  0  0  0  0  0  0  0  0  0  0
  -41.0092  -47.7124   20.0271 H   0  0  0  0  0  0  0  0  0  0  0  0
  -41.4663  -47.3476   21.8909 H   0  0  0  0  0  0  0  0  0  0  0  0
  -37.4767  -46.0725   20.1059 H   0  0  0  0  0  0  0  0  0  0  0  0
  -35.6437  -45.8839   18.6700 H   0  0  0  0  0  0  0  0  0  0  0  0
  -37.8393  -44.4645   16.3350 H   0  0  0  0  0  0  0  0  0  0  0  0
  -40.1614  -44.1772   16.6937 H   0  0  0  0  0  0  0  0  0  0  0  0
  -41.1804  -45.0257   22.6692 H   0  0  0  0  0  0  0  0  0  0  0  0
  -40.9729  -43.8782   21.1028 H   0  0  0  0  0  0  0  0  0  0  0  0
  -39.6567  -42.0297   22.6705 H   0  0  0  0  0  0  0  0  0  0  0  0
  -36.4925  -46.5875   23.7387 H   0  0  0  0  0  0  0  0  0  0  0  0
  -37.1134  -47.9965   22.9499 H   0  0  0  0  0  0  0  0  0  0  0  0
  -39.0382  -47.7724   21.5472 H   0  0  0  0  0  0  0  0  0  0  0  0
  2  1  1  0
  2  3  1  0
  2 14  1  0
  3  4  2  0
  4  5  1  0
  5  6  1  0
  5 10  2  0
  6  7  1  0
  7  8  2  0
  7  9  1  0
 10 11  1  0
 11 12  2  0
 12  3  1  0
 12 13  1  0
 14 15  1  0
 15 16  1  0
 16 17  2  0
 17 18  1  0
 18 19  2  0
 19 15  1  0
 19 20  1  0
 20 21  1  0
 20 22  2  0
 22  2  1  0
  1 23  1  0
  1 24  1  0
  1 25  1  0
  4 26  1  0
  6 27  1  0
 10 28  1  0
 11 29  1  0
 14 30  1  0
 14 31  1  0
 16 32  1  0
 21 33  1  0
 21 34  1  0
 22 35  1  0
M  CHG  1  22   1
M  END
>  <Alignment>
1

>  <Alns>
1

>  <Conformer>
1

>  <Confs>
1

>  <Excl Vol Pen>
0

>  <FScore>
-118.612

>  <FScore+P>
-116.479

>  <FSim>
0.841

>  <Field Penalty>
0

>  <Filename>
intermediate_bace_combination_81_amide_series~1a_spirocycles.sdf

>  <Ref>
lig_81

>  <SScore>
191.992

>  <SScore+P>
185.595

>  <SSim>
0.862

>  <Sim>
0.851

>  <_cresset_fieldpoints2>
 2
    -5     -36.176491     -42.756817      24.164917    -24.5411
    -5     -34.874367     -43.846470      14.473557    -12.9065
    -6     -37.839096     -49.256458      21.704542     14.4660
    -6     -41.675030     -42.044762      22.138092      6.2182
    -6     -35.520657     -48.697071      23.748220      8.7610
    -6     -43.208088     -44.409847      21.982065      5.0786
    -6     -35.527401     -47.089745      20.152340     11.9059
    -6     -40.880024     -43.455570      14.910210      2.1909
    -7     -43.600407     -44.237602      21.338842     -1.7428
    -7     -38.834446     -48.814796      19.129646     -2.2697
    -7     -40.319714     -47.179569      24.185154     -2.4072
    -7     -38.520760     -42.218136      19.669714     -2.8008
    -7     -35.333172     -46.195236      21.242739     -2.6112
    -7     -36.040867     -48.083553      17.187237     -2.0549
    -7     -36.580402     -48.267998      20.510786     -2.3260
    -7     -39.743366     -48.204861      17.728859     -2.3799
    -7     -42.436989     -42.267662      22.566973     -1.2819
    -7     -37.137669     -43.341736      25.697651     -1.2026
    -7     -36.384762     -44.523464      25.550163     -1.1291
    -8     -38.858521     -45.126595      18.412914      7.0878
    -8     -40.526054     -45.461388      19.874861      5.9505
    -8     -34.088226     -45.473152      17.224754      3.7179

$$$$
lig_02
     RDKit          3D

 37 39  0  0  0  0  0  0  0  0999 V2000
  -38.0090  -45.6315   19.1393 C   0  0  0  0  0  0  0  0  0  0  0  0
  -39.9692  -45.1638   17.2217 C   0  0  0  0  0  0  0  0  0  0  0  0
  -35.2004  -46.0152   17.8190 C   0  0  0  0  0  0  0  0  0  0  0  0
  -35.7492  -44.0607   16.6787 C   0  0  0  0  0  0  0  0  0  0  0  0
  -33.6155  -44.8304   16.6899 C   0  0  0  0  0  0  0  0  0  0  0  0
  -37.6132  -45.2875   17.8281 C   0  0  0  0  0  0  0  0  0  0  0  0
  -36.2008  -45.1247   17.4552 C   0  0  0  0  0  0  0  0  0  0  0  0
  -39.3683  -45.7328   19.5198 C   0  0  0  0  0  0  0  0  0  0  0  0
  -38.6278  -45.0833   16.8841 C   0  0  0  0  0  0  0  0  0  0  0  0
  -40.3241  -45.4655   18.5293 C   0  0  0  0  0  0  0  0  0  0  0  0
  -37.8478  -46.5876   22.5205 C   0  0  0  0  0  0  0  0  0  0  0  0
  -39.9995  -44.7608   21.7798 C   0  0  0  0  0  0  0  0  0  0  0  0
  -38.7192  -44.0071   22.0925 C   0  0  0  0  0  0  0  0  0  0  0  0
  -39.7803  -46.0487   20.9633 C   0  0  1  0  0  0  0  0  0  0  0  0
  -41.0746  -46.8925   21.0561 C   0  0  0  0  0  0  0  0  0  0  0  0
  -33.9031  -45.8991   17.4539 N   0  0  0  0  0  0  0  0  0  0  0  0
  -34.4728  -43.8844   16.2757 N   0  0  0  0  0  0  0  0  0  0  0  0
  -38.7506  -46.9116   21.5963 N   0  0  0  0  0  0  0  0  0  0  0  0
  -37.0324  -47.5182   23.0029 N   0  0  0  0  0  4  0  0  0  0  0  0
  -38.3177  -44.8022   15.6093 F   0  0  0  0  0  0  0  0  0  0  0  0
  -41.6313  -45.4746   18.8190 F   0  0  0  0  0  0  0  0  0  0  0  0
  -37.6579  -44.9875   23.1728 S   0  0  0  0  0  0  0  0  0  0  0  0
  -37.2332  -45.7867   19.8872 H   0  0  0  0  0  0  0  0  0  0  0  0
  -40.7339  -44.9813   16.4745 H   0  0  0  0  0  0  0  0  0  0  0  0
  -35.4136  -46.8925   18.4228 H   0  0  0  0  0  0  0  0  0  0  0  0
  -36.4263  -43.2813   16.3387 H   0  0  0  0  0  0  0  0  0  0  0  0
  -32.5860  -44.7195   16.3733 H   0  0  0  0  0  0  0  0  0  0  0  0
  -40.5093  -44.9964   22.7248 H   0  0  0  0  0  0  0  0  0  0  0  0
  -40.6767  -44.0894   21.2351 H   0  0  0  0  0  0  0  0  0  0  0  0
  -38.1722  -43.7361   21.1858 H   0  0  0  0  0  0  0  0  0  0  0  0
  -38.9602  -43.0733   22.6095 H   0  0  0  0  0  0  0  0  0  0  0  0
  -41.2025  -47.2948   22.0687 H   0  0  0  0  0  0  0  0  0  0  0  0
  -41.0496  -47.7469   20.3704 H   0  0  0  0  0  0  0  0  0  0  0  0
  -41.9727  -46.3045   20.8405 H   0  0  0  0  0  0  0  0  0  0  0  0
  -38.7379  -47.8855   21.3012 H   0  0  0  0  0  0  0  0  0  0  0  0
  -37.0923  -48.4785   22.6827 H   0  0  0  0  0  0  0  0  0  0  0  0
  -36.3461  -47.2767   23.7080 H   0  0  0  0  0  0  0  0  0  0  0  0
  1  6  2  0
  1  8  1  0
  2  9  2  0
  2 10  1  0
  3  7  2  0
  3 16  1  0
  4  7  1  0
  4 17  2  0
  5 16  2  0
  5 17  1  0
  6  7  1  0
  6  9  1  0
  8 10  2  0
  8 14  1  0
  9 20  1  0
 10 21  1  0
 11 18  1  0
 11 19  2  0
 11 22  1  0
 12 13  1  0
 12 14  1  0
 13 22  1  0
 14 15  1  6
 14 18  1  0
  1 23  1  0
  2 24  1  0
  3 25  1  0
  4 26  1  0
  5 27  1  0
 12 28  1  0
 12 29  1  0
 13 30  1  0
 13 31  1  0
 15 32  1  0
 15 33  1  0
 15 34  1  0
 18 35  1  0
 19 36  1  0
 19 37  1  0
M  CHG  1  19   1
M  END
$$$$
lig_03
     RDKit          3D

 46 48  0  0  0  0  0  0  0  0999 V2000
  -40.2894  -45.1922   17.1437 C   0  0  0  0  0  0  0  0  0  0  0  0
  -34.8755  -43.5891   16.1635 C   0  0  0  0  0  0  0  0  0  0  0  0
  -38.9570  -45.0093   16.7949 C   0  0  0  0  0  0  0  0  0  0  0  0
  -36.1870  -43.8214   16.5751 C   0  0  0  0  0  0  0  0  0  0  0  0
  -40.6231  -45.6070   18.4292 C   0  0  0  0  0  0  0  0  0  0  0  0
  -33.8677  -44.4732   16.5294 C   0  0  0  0  0  0  0  0  0  0  0  0
  -38.2912  -45.6509   19.0219 C   0  0  0  0  0  0  0  0  0  0  0  0
  -35.4859  -45.8276   17.7124 C   0  0  0  0  0  0  0  0  0  0  0  0
  -37.9293  -45.2091   17.7295 C   0  0  0  0  0  0  0  0  0  0  0  0
  -36.5239  -44.9494   17.3479 C   0  0  0  0  0  0  0  0  0  0  0  0
  -39.6354  -45.8804   19.3886 C   0  0  0  0  0  0  0  0  0  0  0  0
  -34.1639  -45.5934   17.3089 C   0  0  0  0  0  0  0  0  0  0  0  0
  -39.1002  -44.3596   22.0710 C   0  0  0  0  0  0  0  0  0  0  0  0
  -38.0437  -46.6125   22.3411 C   0  0  0  0  0  0  0  0  0  0  0  0
  -40.3449  -45.0979   21.6611 C   0  0  0  0  0  0  0  0  0  0  0  0
  -40.0369  -46.3315   20.8006 C   0  0  1  0  0  0  0  0  0  0  0  0
  -41.2885  -47.2376   20.8042 C   0  0  0  0  0  0  0  0  0  0  0  0
  -37.1106  -44.6010   23.5395 C   0  0  0  0  0  0  0  0  0  0  0  0
  -33.3289  -47.5216   18.4188 C   0  0  0  0  0  0  0  0  0  0  0  0
  -38.0880  -45.2300   22.6328 N   0  0  0  0  0  0  0  0  0  0  0  0
  -38.9426  -47.1431   21.4084 N   0  0  0  0  0  0  0  0  0  0  0  0
  -37.1105  -47.4728   22.9155 N   0  0  0  0  0  4  0  0  0  0  0  0
  -38.9970  -43.1406   22.0100 O   0  0  0  0  0  0  0  0  0  0  0  0
  -33.0853  -46.3852   17.6003 O   0  0  0  0  0  0  0  0  0  0  0  0
  -41.0705  -45.0057   16.4133 H   0  0  0  0  0  0  0  0  0  0  0  0
  -34.6443  -42.7210   15.5535 H   0  0  0  0  0  0  0  0  0  0  0  0
  -38.7301  -44.7001   15.7770 H   0  0  0  0  0  0  0  0  0  0  0  0
  -36.9496  -43.1044   16.2770 H   0  0  0  0  0  0  0  0  0  0  0  0
  -41.6775  -45.7047   18.6673 H   0  0  0  0  0  0  0  0  0  0  0  0
  -32.8488  -44.2845   16.2005 H   0  0  0  0  0  0  0  0  0  0  0  0
  -37.5047  -45.7946   19.7601 H   0  0  0  0  0  0  0  0  0  0  0  0
  -35.7323  -46.7091   18.2989 H   0  0  0  0  0  0  0  0  0  0  0  0
  -40.8384  -45.3941   22.5962 H   0  0  0  0  0  0  0  0  0  0  0  0
  -41.0197  -44.4036   21.1470 H   0  0  0  0  0  0  0  0  0  0  0  0
  -41.4478  -47.6654   21.8018 H   0  0  0  0  0  0  0  0  0  0  0  0
  -41.1729  -48.0777   20.1104 H   0  0  0  0  0  0  0  0  0  0  0  0
  -42.2018  -46.6939   20.5409 H   0  0  0  0  0  0  0  0  0  0  0  0
  -36.6816  -45.3260   24.2321 H   0  0  0  0  0  0  0  0  0  0  0  0
  -36.3260  -44.1288   22.9446 H   0  0  0  0  0  0  0  0  0  0  0  0
  -37.6224  -43.8468   24.1467 H   0  0  0  0  0  0  0  0  0  0  0  0
  -32.3727  -48.0301   18.5710 H   0  0  0  0  0  0  0  0  0  0  0  0
  -34.0058  -48.2259   17.9242 H   0  0  0  0  0  0  0  0  0  0  0  0
  -33.7103  -47.2260   19.4018 H   0  0  0  0  0  0  0  0  0  0  0  0
  -38.8631  -48.1311   21.1746 H   0  0  0  0  0  0  0  0  0  0  0  0
  -36.4025  -47.1613   23.5726 H   0  0  0  0  0  0  0  0  0  0  0  0
  -37.1131  -48.4642   22.6858 H   0  0  0  0  0  0  0  0  0  0  0  0
  1  3  2  0
  1  5  1  0
  2  4  2  0
  2  6  1  0
  3  9  1  0
  4 10  1  0
  5 11  2  0
  6 12  2  0
  7  9  2  0
  7 11  1  0
  8 10  2  0
  8 12  1  0
  9 10  1  0
 11 16  1  0
 12 24  1  0
 13 15  1  0
 13 20  1  0
 13 23  2  0
 14 20  1  0
 14 21  1  0
 14 22  2  0
 15 16  1  0
 16 17  1  6
 16 21  1  0
 18 20  1  0
 19 24  1  0
  1 25  1  0
  2 26  1  0
  3 27  1  0
  4 28  1  0
  5 29  1  0
  6 30  1  0
  7 31  1  0
  8 32  1  0
 15 33  1  0
 15 34  1  0
 17 35  1  0
 17 36  1  0
 17 37  1  0
 18 38  1  0
 18 39  1  0
 18 40  1  0
 19 41  1  0
 19 42  1  0
 19 43  1  0
 21 44  1  0
 22 45  1  0
 22 46  1  0
M  CHG  1  22   1
M  END
$$$$
lig_05
     RDKit          3D

 39 41  0  0  0  0  0  0  0  0999 V2000
  -40.2181  -45.1963   17.2016 C   0  0  0  0  0  0  0  0  0  0  0  0
  -38.8778  -45.0934   16.8387 C   0  0  0  0  0  0  0  0  0  0  0  0
  -40.5708  -45.4986   18.5168 C   0  0  0  0  0  0  0  0  0  0  0  0
  -38.2434  -45.5906   19.1072 C   0  0  0  0  0  0  0  0  0  0  0  0
  -35.9933  -44.0766   16.6239 C   0  0  0  0  0  0  0  0  0  0  0  0
  -35.4865  -46.0919   17.8440 C   0  0  0  0  0  0  0  0  0  0  0  0
  -33.7112  -44.8910   16.7092 C   0  0  0  0  0  0  0  0  0  0  0  0
  -37.8618  -45.2818   17.7857 C   0  0  0  0  0  0  0  0  0  0  0  0
  -36.4396  -45.1507   17.4150 C   0  0  0  0  0  0  0  0  0  0  0  0
  -39.5924  -45.7182   19.4967 C   0  0  0  0  0  0  0  0  0  0  0  0
  -34.6452  -43.9548   16.2770 C   0  0  0  0  0  0  0  0  0  0  0  0
  -34.1401  -45.9569   17.4940 C   0  0  0  0  0  0  0  0  0  0  0  0
  -38.0378  -46.6230   22.4156 C   0  0  0  0  0  0  0  0  0  0  0  0
  -37.9699  -45.2314   22.9120 C   0  0  0  0  0  0  0  0  0  0  0  0
  -39.9744  -44.7401   21.7887 C   0  0  0  0  0  0  0  0  0  0  0  0
  -39.9644  -46.0257   20.9503 C   0  0  1  0  0  0  0  0  0  0  0  0
  -41.3198  -46.7392   21.1008 C   0  0  0  0  0  0  0  0  0  0  0  0
  -38.9636  -46.9617   21.5216 N   0  0  0  0  0  0  0  0  0  0  0  0
  -37.1520  -47.4731   22.9162 N   0  0  0  0  0  4  0  0  0  0  0  0
  -38.6346  -44.3200   22.0359 O   0  0  0  0  0  0  0  0  0  0  0  0
  -34.1345  -42.6300   15.3050 Cl  0  0  0  0  0  0  0  0  0  0  0  0
  -32.9985  -47.1237   18.0388 Cl  0  0  0  0  0  0  0  0  0  0  0  0
  -40.9924  -45.0365   16.4568 H   0  0  0  0  0  0  0  0  0  0  0  0
  -38.6378  -44.8633   15.8029 H   0  0  0  0  0  0  0  0  0  0  0  0
  -41.6286  -45.5509   18.7554 H   0  0  0  0  0  0  0  0  0  0  0  0
  -37.4620  -45.7157   19.8544 H   0  0  0  0  0  0  0  0  0  0  0  0
  -36.7003  -43.3221   16.2825 H   0  0  0  0  0  0  0  0  0  0  0  0
  -35.7962  -46.9421   18.4497 H   0  0  0  0  0  0  0  0  0  0  0  0
  -32.6633  -44.7912   16.4383 H   0  0  0  0  0  0  0  0  0  0  0  0
  -38.4137  -45.1594   23.9116 H   0  0  0  0  0  0  0  0  0  0  0  0
  -36.9279  -44.9028   22.9859 H   0  0  0  0  0  0  0  0  0  0  0  0
  -40.4939  -43.9282   21.2673 H   0  0  0  0  0  0  0  0  0  0  0  0
  -40.4816  -44.8828   22.7514 H   0  0  0  0  0  0  0  0  0  0  0  0
  -41.4710  -47.0713   22.1351 H   0  0  0  0  0  0  0  0  0  0  0  0
  -41.3715  -47.6323   20.4672 H   0  0  0  0  0  0  0  0  0  0  0  0
  -42.1610  -46.0864   20.8446 H   0  0  0  0  0  0  0  0  0  0  0  0
  -38.9629  -47.9314   21.2161 H   0  0  0  0  0  0  0  0  0  0  0  0
  -36.4668  -47.1726   23.6007 H   0  0  0  0  0  0  0  0  0  0  0  0
  -37.1483  -48.4436   22.6228 H   0  0  0  0  0  0  0  0  0  0  0  0
  1  2  2  0
  1  3  1  0
  2  8  1  0
  3 10  2  0
  4  8  2  0
  4 10  1  0
  5  9  2  0
  5 11  1  0
  6  9  1  0
  6 12  2  0
  7 11  2  0
  7 12  1  0
  8  9  1  0
 10 16  1  0
 11 21  1  0
 12 22  1  0
 13 14  1  0
 13 18  1  0
 13 19  2  0
 14 20  1  0
 15 16  1  0
 15 20  1  0
 16 17  1  6
 16 18  1  0
  1 23  1  0
  2 24  1  0
  3 25  1  0
  4 26  1  0
  5 27  1  0
  6 28  1  0
  7 29  1  0
 14 30  1  0
 14 31  1  0
 15 32  1  0
 15 33  1  0
 17 34  1  0
 17 35  1  0
 17 36  1  0
 18 37  1  0
 19 38  1  0
 19 39  1  0
M  CHG  1  19   1
M  END
$$$$
lig_06
     RDKit          3D

 42 45  0  0  0  0  0  0  0  0999 V2000
  -40.1582  -45.2247   17.3301 C   0  0  0  0  0  0  0  0  0  0  0  0
  -38.8476  -45.0908   16.8719 C   0  0  0  0  0  0  0  0  0  0  0  0
  -40.4148  -45.5005   18.6747 C   0  0  0  0  0  0  0  0  0  0  0  0
  -39.0695  -43.4695   21.8948 C   0  0  0  0  0  0  0  0  0  0  0  0
  -38.0475  -45.5261   19.0957 C   0  0  0  0  0  0  0  0  0  0  0  0
  -35.9935  -43.9743   16.5045 C   0  0  0  0  0  0  0  0  0  0  0  0
  -35.3738  -45.9720   17.7035 C   0  0  0  0  0  0  0  0  0  0  0  0
  -33.6773  -44.6924   16.5416 C   0  0  0  0  0  0  0  0  0  0  0  0
  -38.1683  -43.0249   22.8811 C   0  0  0  0  0  0  0  0  0  0  0  0
  -37.7656  -45.2353   17.7493 C   0  0  0  0  0  0  0  0  0  0  0  0
  -36.3726  -45.0662   17.3035 C   0  0  0  0  0  0  0  0  0  0  0  0
  -39.3631  -45.6557   19.5850 C   0  0  0  0  0  0  0  0  0  0  0  0
  -34.6591  -43.7948   16.1324 C   0  0  0  0  0  0  0  0  0  0  0  0
  -34.0436  -45.7796   17.3281 C   0  0  0  0  0  0  0  0  0  0  0  0
  -38.9489  -44.8434   21.9051 C   0  0  0  0  0  0  0  0  0  0  0  0
  -38.0031  -47.4752   22.3314 C   0  0  0  0  0  0  0  0  0  0  0  0
  -37.6222  -46.4306   23.3018 C   0  0  0  0  0  0  0  0  0  0  0  0
  -39.5657  -45.9324   21.0767 C   0  0  1  0  0  0  0  0  0  0  0  0
  -41.0298  -46.1329   21.5004 C   0  0  0  0  0  0  0  0  0  0  0  0
  -37.5357  -44.0289   23.4917 N   0  0  0  0  0  0  0  0  0  0  0  0
  -38.0401  -45.1146   22.8842 N   0  0  0  0  0  0  0  0  0  0  0  0
  -38.8828  -47.2312   21.3602 N   0  0  0  0  0  0  0  0  0  0  0  0
  -37.4123  -48.6490   22.5098 N   0  0  0  0  0  4  0  0  0  0  0  0
  -34.2217  -42.4379   15.1689 Cl  0  0  0  0  0  0  0  0  0  0  0  0
  -32.8446  -46.8946   17.8559 Cl  0  0  0  0  0  0  0  0  0  0  0  0
  -40.9850  -45.1068   16.6352 H   0  0  0  0  0  0  0  0  0  0  0  0
  -38.6846  -44.8741   15.8185 H   0  0  0  0  0  0  0  0  0  0  0  0
  -41.4516  -45.5836   18.9854 H   0  0  0  0  0  0  0  0  0  0  0  0
  -39.7000  -42.8763   21.2486 H   0  0  0  0  0  0  0  0  0  0  0  0
  -37.2189  -45.6312   19.7964 H   0  0  0  0  0  0  0  0  0  0  0  0
  -36.7385  -43.2462   16.1884 H   0  0  0  0  0  0  0  0  0  0  0  0
  -35.6344  -46.8326   18.3176 H   0  0  0  0  0  0  0  0  0  0  0  0
  -32.6397  -44.5444   16.2548 H   0  0  0  0  0  0  0  0  0  0  0  0
  -37.9431  -42.0122   23.1803 H   0  0  0  0  0  0  0  0  0  0  0  0
  -38.0888  -46.6234   24.2737 H   0  0  0  0  0  0  0  0  0  0  0  0
  -36.5336  -46.4012   23.4256 H   0  0  0  0  0  0  0  0  0  0  0  0
  -41.1022  -46.3779   22.5665 H   0  0  0  0  0  0  0  0  0  0  0  0
  -41.4949  -46.9610   20.9521 H   0  0  0  0  0  0  0  0  0  0  0  0
  -41.6316  -45.2318   21.3323 H   0  0  0  0  0  0  0  0  0  0  0  0
  -39.0948  -48.0176   20.7508 H   0  0  0  0  0  0  0  0  0  0  0  0
  -36.7472  -48.7827   23.2641 H   0  0  0  0  0  0  0  0  0  0  0  0
  -37.6101  -49.4276   21.8925 H   0  0  0  0  0  0  0  0  0  0  0  0
  1  2  2  0
  1  3  1  0
  2 10  1  0
  3 12  2  0
  4  9  1  0
  4 15  2  0
  5 10  2  0
  5 12  1  0
  6 11  2  0
  6 13  1  0
  7 11  1  0
  7 14  2  0
  8 13  2  0
  8 14  1  0
  9 20  2  0
 10 11  1  0
 12 18  1  0
 13 24  1  0
 14 25  1  0
 15 18  1  0
 15 21  1  0
 16 17  1  0
 16 22  1  0
 16 23  2  0
 17 21  1  0
 18 19  1  6
 18 22  1  0
 20 21  1  0
  1 26  1  0
  2 27  1  0
  3 28  1  0
  4 29  1  0
  5 30  1  0
  6 31  1  0
  7 32  1  0
  8 33  1  0
  9 34  1  0
 17 35  1  0
 17 36  1  0
 19 37  1  0
 19 38  1  0
 19 39  1  0
 22 40  1  0
 23 41  1  0
 23 42  1  0
M  CHG  1  23   1
M  END
$$$$
lig_07
     RDKit          3D

 42 45  0  0  0  0  0  0  0  0999 V2000
  -40.1853  -45.2236   17.1561 C   0  0  0  0  0  0  0  0  0  0  0  0
  -38.8417  -45.1130   16.8105 C   0  0  0  0  0  0  0  0  0  0  0  0
  -40.5502  -45.5374   18.4642 C   0  0  0  0  0  0  0  0  0  0  0  0
  -38.2297  -45.6216   19.0844 C   0  0  0  0  0  0  0  0  0  0  0  0
  -35.9620  -44.0919   16.6242 C   0  0  0  0  0  0  0  0  0  0  0  0
  -35.4608  -46.1044   17.8512 C   0  0  0  0  0  0  0  0  0  0  0  0
  -33.6802  -44.9041   16.7249 C   0  0  0  0  0  0  0  0  0  0  0  0
  -37.0778  -43.7889   23.6837 C   0  0  0  0  0  0  0  0  0  0  0  0
  -38.1753  -43.3854   22.9550 C   0  0  0  0  0  0  0  0  0  0  0  0
  -37.8361  -45.3033   17.7689 C   0  0  0  0  0  0  0  0  0  0  0  0
  -36.4116  -45.1659   17.4132 C   0  0  0  0  0  0  0  0  0  0  0  0
  -39.5815  -45.7580   19.4543 C   0  0  0  0  0  0  0  0  0  0  0  0
  -34.6123  -43.9694   16.2856 C   0  0  0  0  0  0  0  0  0  0  0  0
  -34.1130  -45.9688   17.5090 C   0  0  0  0  0  0  0  0  0  0  0  0
  -37.8508  -45.5605   22.8009 C   0  0  0  0  0  0  0  0  0  0  0  0
  -38.0693  -46.9005   22.3437 C   0  0  0  0  0  0  0  0  0  0  0  0
  -39.9150  -44.7397   21.7307 C   0  0  0  0  0  0  0  0  0  0  0  0
  -39.9669  -46.0516   20.9058 C   0  0  1  0  0  0  0  0  0  0  0  0
  -41.3726  -46.6701   21.0588 C   0  0  0  0  0  0  0  0  0  0  0  0
  -36.8800  -45.1459   23.5836 N   0  0  0  0  0  0  0  0  0  0  0  0
  -38.6705  -44.5382   22.4340 N   0  0  0  0  0  0  0  0  0  0  0  0
  -39.0464  -47.1015   21.4574 N   0  0  0  0  0  0  0  0  0  0  0  0
  -37.2773  -47.8522   22.8168 N   0  0  0  0  0  4  0  0  0  0  0  0
  -34.0980  -42.6468   15.3130 Cl  0  0  0  0  0  0  0  0  0  0  0  0
  -32.9756  -47.1360   18.0609 Cl  0  0  0  0  0  0  0  0  0  0  0  0
  -40.9522  -45.0593   16.4048 H   0  0  0  0  0  0  0  0  0  0  0  0
  -38.5911  -44.8754   15.7789 H   0  0  0  0  0  0  0  0  0  0  0  0
  -41.6107  -45.5921   18.6898 H   0  0  0  0  0  0  0  0  0  0  0  0
  -37.4584  -45.7453   19.8419 H   0  0  0  0  0  0  0  0  0  0  0  0
  -36.6678  -43.3394   16.2764 H   0  0  0  0  0  0  0  0  0  0  0  0
  -35.7737  -46.9540   18.4559 H   0  0  0  0  0  0  0  0  0  0  0  0
  -32.6311  -44.8044   16.4592 H   0  0  0  0  0  0  0  0  0  0  0  0
  -36.4222  -43.1717   24.2795 H   0  0  0  0  0  0  0  0  0  0  0  0
  -38.6360  -42.4214   22.7956 H   0  0  0  0  0  0  0  0  0  0  0  0
  -40.0970  -43.8560   21.1068 H   0  0  0  0  0  0  0  0  0  0  0  0
  -40.6803  -44.7464   22.5168 H   0  0  0  0  0  0  0  0  0  0  0  0
  -41.5396  -46.9939   22.0935 H   0  0  0  0  0  0  0  0  0  0  0  0
  -41.4909  -47.5555   20.4233 H   0  0  0  0  0  0  0  0  0  0  0  0
  -42.1663  -45.9576   20.8102 H   0  0  0  0  0  0  0  0  0  0  0  0
  -39.1630  -48.0587   21.1347 H   0  0  0  0  0  0  0  0  0  0  0  0
  -36.5485  -47.6376   23.4895 H   0  0  0  0  0  0  0  0  0  0  0  0
  -37.3883  -48.8136   22.5159 H   0  0  0  0  0  0  0  0  0  0  0  0
  1  2  2  0
  1  3  1  0
  2 10  1  0
  3 12  2  0
  4 10  2  0
  4 12  1  0
  5 11  2  0
  5 13  1  0
  6 11  1  0
  6 14  2  0
  7 13  2  0
  7 14  1  0
  8  9  2  0
  8 20  1  0
  9 21  1  0
 10 11  1  0
 12 18  1  0
 13 24  1  0
 14 25  1  0
 15 16  1  0
 15 20  2  0
 15 21  1  0
 16 22  1  0
 16 23  2  0
 17 18  1  0
 17 21  1  0
 18 19  1  6
 18 22  1  0
  1 26  1  0
  2 27  1  0
  3 28  1  0
  4 29  1  0
  5 30  1  0
  6 31  1  0
  7 32  1  0
  8 33  1  0
  9 34  1  0
 17 35  1  0
 17 36  1  0
 19 37  1  0
 19 38  1  0
 19 39  1  0
 22 40  1  0
 23 41  1  0
 23 42  1  0
M  CHG  1  23   1
M  END
$$$$
lig_11
     RDKit          3D

 47 50  0  0  0  0  0  0  0  0999 V2000
  -34.2682  -44.3482   16.0497 C   0  0  0  0  0  0  0  0  0  0  0  0
  -34.4070  -45.0810   17.2283 C   0  0  0  0  0  0  0  0  0  0  0  0
  -35.3941  -43.8099   15.4264 C   0  0  0  0  0  0  0  0  0  0  0  0
  -35.6717  -45.2757   17.7837 C   0  0  0  0  0  0  0  0  0  0  0  0
  -36.6587  -44.0046   15.9817 C   0  0  0  0  0  0  0  0  0  0  0  0
  -39.2297  -44.9930   16.9141 C   0  0  0  0  0  0  0  0  0  0  0  0
  -40.4897  -45.1962   17.4719 C   0  0  0  0  0  0  0  0  0  0  0  0
  -38.2505  -45.0769   19.1185 C   0  0  0  0  0  0  0  0  0  0  0  0
  -36.7975  -44.7375   17.1604 C   0  0  0  0  0  0  0  0  0  0  0  0
  -38.1091  -44.9395   17.7369 C   0  0  0  0  0  0  0  0  0  0  0  0
  -39.5158  -45.2685   19.6992 C   0  0  0  0  0  0  0  0  0  0  0  0
  -40.6319  -45.3496   18.8552 C   0  0  0  0  0  0  0  0  0  0  0  0
  -38.9160  -44.2713   21.9588 C   0  0  0  0  0  0  0  0  0  0  0  0
  -37.9818  -46.2798   22.6098 C   0  0  0  0  0  0  0  0  0  0  0  0
  -41.1401  -45.3790   21.6194 C   0  0  0  0  0  0  0  0  0  0  0  0
  -39.6728  -45.3888   21.1918 C   0  0  1  0  0  0  0  0  0  0  0  0
  -42.0563  -46.1036   20.6195 C   0  0  0  0  0  0  0  0  0  0  0  0
  -43.5180  -45.8439   21.0202 C   0  0  0  0  0  0  0  0  0  0  0  0
  -41.8376  -47.6230   20.5740 C   0  0  0  0  0  0  0  0  0  0  0  0
  -37.0447  -44.1736   23.6727 C   0  0  0  0  0  0  0  0  0  0  0  0
  -37.9335  -44.9184   22.7887 N   0  0  0  0  0  0  0  0  0  0  0  0
  -38.9715  -46.6070   21.6804 N   0  0  0  0  0  0  0  0  0  0  0  0
  -37.1892  -47.2122   23.2297 N   0  0  0  0  0  4  0  0  0  0  0  0
  -39.1039  -43.0681   21.8770 O   0  0  0  0  0  0  0  0  0  0  0  0
  -41.9123  -45.5627   19.2947 O   0  0  0  0  0  0  0  0  0  0  0  0
  -33.2833  -44.1952   15.6184 H   0  0  0  0  0  0  0  0  0  0  0  0
  -33.5304  -45.4987   17.7146 H   0  0  0  0  0  0  0  0  0  0  0  0
  -35.2866  -43.2380   14.5094 H   0  0  0  0  0  0  0  0  0  0  0  0
  -35.7633  -45.8492   18.7031 H   0  0  0  0  0  0  0  0  0  0  0  0
  -37.5271  -43.5785   15.4850 H   0  0  0  0  0  0  0  0  0  0  0  0
  -39.1382  -44.8833   15.8362 H   0  0  0  0  0  0  0  0  0  0  0  0
  -41.3595  -45.2460   16.8218 H   0  0  0  0  0  0  0  0  0  0  0  0
  -37.3680  -45.0303   19.7543 H   0  0  0  0  0  0  0  0  0  0  0  0
  -41.2514  -45.8035   22.6256 H   0  0  0  0  0  0  0  0  0  0  0  0
  -41.4736  -44.3332   21.6868 H   0  0  0  0  0  0  0  0  0  0  0  0
  -44.1766  -46.3502   20.3219 H   0  0  0  0  0  0  0  0  0  0  0  0
  -43.7121  -44.7765   20.9963 H   0  0  0  0  0  0  0  0  0  0  0  0
  -43.6877  -46.2235   22.0227 H   0  0  0  0  0  0  0  0  0  0  0  0
  -42.5161  -48.0636   19.8496 H   0  0  0  0  0  0  0  0  0  0  0  0
  -42.0309  -48.0447   21.5559 H   0  0  0  0  0  0  0  0  0  0  0  0
  -40.8119  -47.8313   20.2846 H   0  0  0  0  0  0  0  0  0  0  0  0
  -37.5171  -44.0627   24.6599 H   0  0  0  0  0  0  0  0  0  0  0  0
  -36.0945  -44.7174   23.7801 H   0  0  0  0  0  0  0  0  0  0  0  0
  -36.8515  -43.1788   23.2450 H   0  0  0  0  0  0  0  0  0  0  0  0
  -39.1602  -47.5668   21.4033 H   0  0  0  0  0  0  0  0  0  0  0  0
  -36.5059  -46.8927   23.8758 H   0  0  0  0  0  0  0  0  0  0  0  0
  -37.3295  -48.1701   23.0082 H   0  0  0  0  0  0  0  0  0  0  0  0
  1  2  2  0
  1  3  1  0
  2  4  1  0
  3  5  2  0
  4  9  2  0
  5  9  1  0
  6  7  2  0
  6 10  1  0
  7 12  1  0
  8 10  2  0
  8 11  1  0
  9 10  1  0
 11 12  2  0
 11 16  1  0
 12 25  1  0
 13 16  1  0
 13 21  1  0
 13 24  2  0
 14 21  1  0
 14 22  1  0
 14 23  2  0
 15 16  1  0
 15 17  1  0
 16 22  1  1
 17 18  1  0
 17 19  1  0
 17 25  1  0
 20 21  1  0
  1 26  1  0
  2 27  1  0
  3 28  1  0
  4 29  1  0
  5 30  1  0
  6 31  1  0
  7 32  1  0
  8 33  1  0
 15 34  1  0
 15 35  1  0
 18 36  1  0
 18 37  1  0
 18 38  1  0
 19 39  1  0
 19 40  1  0
 19 41  1  0
 20 42  1  0
 20 43  1  0
 20 44  1  0
 22 45  1  0
 23 46  1  0
 23 47  1  0
M  CHG  1  23   1
M  END
$$$$
lig_13
     RDKit          3D

 48 51  0  0  0  0  0  0  0  0999 V2000
  -33.2652  -45.8563   17.7205 C   0  0  0  0  0  0  0  0  0  0  0  0
  -35.3048  -43.5774   15.6028 C   0  0  0  0  0  0  0  0  0  0  0  0
  -34.2044  -44.2521   16.1255 C   0  0  0  0  0  0  0  0  0  0  0  0
  -36.5843  -43.8109   16.1158 C   0  0  0  0  0  0  0  0  0  0  0  0
  -39.2916  -44.9925   16.9342 C   0  0  0  0  0  0  0  0  0  0  0  0
  -40.5536  -45.1949   17.4992 C   0  0  0  0  0  0  0  0  0  0  0  0
  -35.6691  -45.4106   17.6625 C   0  0  0  0  0  0  0  0  0  0  0  0
  -38.3103  -45.1263   19.1185 C   0  0  0  0  0  0  0  0  0  0  0  0
  -34.3860  -45.1685   17.1591 C   0  0  0  0  0  0  0  0  0  0  0  0
  -36.7949  -44.7298   17.1593 C   0  0  0  0  0  0  0  0  0  0  0  0
  -38.1393  -44.9556   17.7322 C   0  0  0  0  0  0  0  0  0  0  0  0
  -39.5741  -45.3226   19.7058 C   0  0  0  0  0  0  0  0  0  0  0  0
  -40.6942  -45.3723   18.8764 C   0  0  0  0  0  0  0  0  0  0  0  0
  -38.9089  -44.3599   21.9429 C   0  0  0  0  0  0  0  0  0  0  0  0
  -37.9597  -46.3841   22.5163 C   0  0  0  0  0  0  0  0  0  0  0  0
  -41.1683  -45.4225   21.6511 C   0  0  0  0  0  0  0  0  0  0  0  0
  -39.7113  -45.4587   21.1987 C   0  0  1  0  0  0  0  0  0  0  0  0
  -42.1196  -46.1030   20.6517 C   0  0  0  0  0  0  0  0  0  0  0  0
  -43.5659  -45.7880   21.0665 C   0  0  0  0  0  0  0  0  0  0  0  0
  -41.9580  -47.6288   20.5967 C   0  0  0  0  0  0  0  0  0  0  0  0
  -36.8757  -44.2879   23.4548 C   0  0  0  0  0  0  0  0  0  0  0  0
  -32.3619  -46.4147   18.1879 N   0  0  0  0  0  0  0  0  0  0  0  0
  -37.8740  -45.0239   22.6896 N   0  0  0  0  0  0  0  0  0  0  0  0
  -39.0202  -46.6925   21.6603 N   0  0  0  0  0  0  0  0  0  0  0  0
  -37.1414  -47.3306   23.0784 N   0  0  0  0  0  4  0  0  0  0  0  0
  -39.0907  -43.1545   21.8858 O   0  0  0  0  0  0  0  0  0  0  0  0
  -41.9721  -45.5649   19.3259 O   0  0  0  0  0  0  0  0  0  0  0  0
  -35.1681  -42.8587   14.7998 H   0  0  0  0  0  0  0  0  0  0  0  0
  -33.2151  -44.0515   15.7227 H   0  0  0  0  0  0  0  0  0  0  0  0
  -37.4143  -43.2460   15.6963 H   0  0  0  0  0  0  0  0  0  0  0  0
  -39.2254  -44.8722   15.8552 H   0  0  0  0  0  0  0  0  0  0  0  0
  -41.4267  -45.2195   16.8522 H   0  0  0  0  0  0  0  0  0  0  0  0
  -35.7883  -46.1407   18.4626 H   0  0  0  0  0  0  0  0  0  0  0  0
  -37.4379  -45.0828   19.7693 H   0  0  0  0  0  0  0  0  0  0  0  0
  -41.2733  -45.8652   22.6502 H   0  0  0  0  0  0  0  0  0  0  0  0
  -41.4733  -44.3708   21.7473 H   0  0  0  0  0  0  0  0  0  0  0  0
  -44.2797  -46.2135   20.3518 H   0  0  0  0  0  0  0  0  0  0  0  0
  -43.7432  -44.7059   21.0662 H   0  0  0  0  0  0  0  0  0  0  0  0
  -43.7957  -46.1780   22.0636 H   0  0  0  0  0  0  0  0  0  0  0  0
  -42.7238  -48.0740   19.9503 H   0  0  0  0  0  0  0  0  0  0  0  0
  -42.0466  -48.0773   21.5915 H   0  0  0  0  0  0  0  0  0  0  0  0
  -40.9999  -47.9272   20.1619 H   0  0  0  0  0  0  0  0  0  0  0  0
  -37.3716  -43.7540   24.2692 H   0  0  0  0  0  0  0  0  0  0  0  0
  -36.1260  -44.9651   23.8687 H   0  0  0  0  0  0  0  0  0  0  0  0
  -36.3772  -43.5731   22.7933 H   0  0  0  0  0  0  0  0  0  0  0  0
  -39.2557  -47.6489   21.4089 H   0  0  0  0  0  0  0  0  0  0  0  0
  -36.3777  -47.0801   23.7001 H   0  0  0  0  0  0  0  0  0  0  0  0
  -37.2812  -48.3199   22.8878 H   0  0  0  0  0  0  0  0  0  0  0  0
  1  9  1  0
  1 22  3  0
  2  3  2  0
  2  4  1  0
  3  9  1  0
  4 10  2  0
  5  6  2  0
  5 11  1  0
  6 13  1  0
  7  9  2  0
  7 10  1  0
  8 11  2  0
  8 12  1  0
 10 11  1  0
 12 13  2  0
 12 17  1  0
 13 27  1  0
 14 17  1  0
 14 23  1  0
 14 26  2  0
 15 23  1  0
 15 24  1  0
 15 25  2  0
 16 17  1  0
 16 18  1  0
 17 24  1  1
 18 19  1  0
 18 20  1  0
 18 27  1  0
 21 23  1  0
  2 28  1  0
  3 29  1  0
  4 30  1  0
  5 31  1  0
  6 32  1  0
  7 33  1  0
  8 34  1  0
 16 35  1  0
 16 36  1  0
 19 37  1  0
 19 38  1  0
 19 39  1  0
 20 40  1  0
 20 41  1  0
 20 42  1  0
 21 43  1  0
 21 44  1  0
 21 45  1  0
 24 46  1  0
 25 47  1  0
 25 48  1  0
M  CHG  1  25   1
M  END
$$$$
lig_16
     RDKit          3D

 51 54  0  0  0  0  0  0  0  0999 V2000
  -39.2331  -44.9942   16.9142 C   0  0  0  0  0  0  0  0  0  0  0  0
  -36.6629  -44.0057   15.9801 C   0  0  0  0  0  0  0  0  0  0  0  0
  -35.6745  -45.2767   17.7813 C   0  0  0  0  0  0  0  0  0  0  0  0
  -40.4927  -45.1974   17.4728 C   0  0  0  0  0  0  0  0  0  0  0  0
  -35.3988  -43.8111   15.4237 C   0  0  0  0  0  0  0  0  0  0  0  0
  -34.4103  -45.0822   17.2249 C   0  0  0  0  0  0  0  0  0  0  0  0
  -38.2526  -45.0777   19.1181 C   0  0  0  0  0  0  0  0  0  0  0  0
  -36.8008  -44.7385   17.1590 C   0  0  0  0  0  0  0  0  0  0  0  0
  -38.1120  -44.9405   17.7363 C   0  0  0  0  0  0  0  0  0  0  0  0
  -39.5175  -45.2692   19.6995 C   0  0  0  0  0  0  0  0  0  0  0  0
  -40.6341  -45.3506   18.8562 C   0  0  0  0  0  0  0  0  0  0  0  0
  -34.2725  -44.3493   16.0460 C   0  0  0  0  0  0  0  0  0  0  0  0
  -38.9165  -44.2717   21.9586 C   0  0  0  0  0  0  0  0  0  0  0  0
  -37.9817  -46.2800   22.6094 C   0  0  0  0  0  0  0  0  0  0  0  0
  -41.1407  -45.3796   21.6207 C   0  0  0  0  0  0  0  0  0  0  0  0
  -39.6736  -45.3894   21.1922 C   0  0  1  0  0  0  0  0  0  0  0  0
  -42.0574  -46.1044   20.6214 C   0  0  0  0  0  0  0  0  0  0  0  0
  -43.5188  -45.8448   21.0229 C   0  0  0  0  0  0  0  0  0  0  0  0
  -41.8387  -47.6238   20.5761 C   0  0  0  0  0  0  0  0  0  0  0  0
  -37.0441  -44.1736   23.6714 C   0  0  0  0  0  0  0  0  0  0  0  0
  -31.9306  -44.7375   16.1904 C   0  0  0  0  0  0  0  0  0  0  0  0
  -37.9334  -44.9186   22.7880 N   0  0  0  0  0  0  0  0  0  0  0  0
  -38.9719  -46.6074   21.6806 N   0  0  0  0  0  0  0  0  0  0  0  0
  -37.1886  -47.2122   23.2290 N   0  0  0  0  0  4  0  0  0  0  0  0
  -39.1045  -43.0685   21.8767 O   0  0  0  0  0  0  0  0  0  0  0  0
  -41.9143  -45.5637   19.2965 O   0  0  0  0  0  0  0  0  0  0  0  0
  -33.0393  -44.1598   15.5026 O   0  0  0  0  0  0  0  0  0  0  0  0
  -39.1422  -44.8846   15.8363 H   0  0  0  0  0  0  0  0  0  0  0  0
  -37.5314  -43.5799   15.4833 H   0  0  0  0  0  0  0  0  0  0  0  0
  -35.7654  -45.8504   18.7006 H   0  0  0  0  0  0  0  0  0  0  0  0
  -41.3629  -45.2474   16.8232 H   0  0  0  0  0  0  0  0  0  0  0  0
  -35.2978  -43.2395   14.5051 H   0  0  0  0  0  0  0  0  0  0  0  0
  -33.5364  -45.5040   17.7139 H   0  0  0  0  0  0  0  0  0  0  0  0
  -37.3697  -45.0309   19.7533 H   0  0  0  0  0  0  0  0  0  0  0  0
  -41.2514  -45.8039   22.6270 H   0  0  0  0  0  0  0  0  0  0  0  0
  -41.4742  -44.3338   21.6881 H   0  0  0  0  0  0  0  0  0  0  0  0
  -44.1779  -46.3513   20.3251 H   0  0  0  0  0  0  0  0  0  0  0  0
  -43.7131  -44.7774   20.9990 H   0  0  0  0  0  0  0  0  0  0  0  0
  -43.6880  -46.2242   22.0256 H   0  0  0  0  0  0  0  0  0  0  0  0
  -42.5176  -48.0646   19.8521 H   0  0  0  0  0  0  0  0  0  0  0  0
  -42.0313  -48.0454   21.5581 H   0  0  0  0  0  0  0  0  0  0  0  0
  -40.8130  -47.8321   20.2860 H   0  0  0  0  0  0  0  0  0  0  0  0
  -37.5160  -44.0625   24.6589 H   0  0  0  0  0  0  0  0  0  0  0  0
  -36.0938  -44.7172   23.7783 H   0  0  0  0  0  0  0  0  0  0  0  0
  -36.8513  -43.1788   23.2434 H   0  0  0  0  0  0  0  0  0  0  0  0
  -31.0079  -44.5111   15.6507 H   0  0  0  0  0  0  0  0  0  0  0  0
  -32.0680  -45.8195   16.2609 H   0  0  0  0  0  0  0  0  0  0  0  0
  -31.8756  -44.3130   17.1957 H   0  0  0  0  0  0  0  0  0  0  0  0
  -39.1608  -47.5673   21.4038 H   0  0  0  0  0  0  0  0  0  0  0  0
  -36.5050  -46.8926   23.8746 H   0  0  0  0  0  0  0  0  0  0  0  0
  -37.3291  -48.1702   23.0077 H   0  0  0  0  0  0  0  0  0  0  0  0
  1  4  2  0
  1  9  1  0
  2  5  2  0
  2  8  1  0
  3  6  1  0
  3  8  2  0
  4 11  1  0
  5 12  1  0
  6 12  2  0
  7  9  2  0
  7 10  1  0
  8  9  1  0
 10 11  2  0
 10 16  1  0
 11 26  1  0
 12 27  1  0
 13 16  1  0
 13 22  1  0
 13 25  2  0
 14 22  1  0
 14 23  1  0
 14 24  2  0
 15 16  1  0
 15 17  1  0
 16 23  1  1
 17 18  1  0
 17 19  1  0
 17 26  1  0
 20 22  1  0
 21 27  1  0
  1 28  1  0
  2 29  1  0
  3 30  1  0
  4 31  1  0
  5 32  1  0
  6 33  1  0
  7 34  1  0
 15 35  1  0
 15 36  1  0
 18 37  1  0
 18 38  1  0
 18 39  1  0
 19 40  1  0
 19 41  1  0
 19 42  1  0
 20 43  1  0
 20 44  1  0
 20 45  1  0
 21 46  1  0
 21 47  1  0
 21 48  1  0
 23 49  1  0
 24 50  1  0
 24 51  1  0
M  CHG  1  24   1
M  END
$$$$
lig_1a
     RDKit          3D

 37 39  0  0  0  0  0  0  0  0999 V2000
  -40.5651  -45.2426   17.4631 C   0  0  0  0  0  0  0  0  0  0  0  0
  -39.3154  -45.0579   16.8765 C   0  0  0  0  0  0  0  0  0  0  0  0
  -38.2913  -45.1190   19.0612 C   0  0  0  0  0  0  0  0  0  0  0  0
  -39.5457  -45.2917   19.6705 C   0  0  0  0  0  0  0  0  0  0  0  0
  -40.6797  -45.3754   18.8510 C   0  0  0  0  0  0  0  0  0  0  0  0
  -38.1775  -45.0023   17.6751 C   0  0  0  0  0  0  0  0  0  0  0  0
  -38.8910  -44.2680   21.9028 C   0  0  0  0  0  0  0  0  0  0  0  0
  -37.9598  -46.2749   22.5630 C   0  0  0  0  0  0  0  0  0  0  0  0
  -41.1306  -45.3615   21.6253 C   0  0  0  0  0  0  0  0  0  0  0  0
  -39.6726  -45.3897   21.1676 C   0  0  1  0  0  0  0  0  0  0  0  0
  -42.0733  -46.0923   20.6549 C   0  0  0  0  0  0  0  0  0  0  0  0
  -43.5241  -45.8148   21.0820 C   0  0  0  0  0  0  0  0  0  0  0  0
  -41.8679  -47.6141   20.6266 C   0  0  0  0  0  0  0  0  0  0  0  0
  -36.9837  -44.1619   23.5762 C   0  0  0  0  0  0  0  0  0  0  0  0
  -37.8967  -44.9116   22.7214 N   0  0  0  0  0  0  0  0  0  0  0  0
  -38.9712  -46.6068   21.6589 N   0  0  0  0  0  0  0  0  0  0  0  0
  -37.1621  -47.2051   23.1796 N   0  0  0  0  0  4  0  0  0  0  0  0
  -39.0708  -43.0645   21.8078 O   0  0  0  0  0  0  0  0  0  0  0  0
  -41.9525  -45.5714   19.3199 O   0  0  0  0  0  0  0  0  0  0  0  0
  -36.4780  -44.7615   16.8844 Br  0  0  0  0  0  0  0  0  0  0  0  0
  -41.4485  -45.2942   16.8316 H   0  0  0  0  0  0  0  0  0  0  0  0
  -39.2459  -44.9641   15.7961 H   0  0  0  0  0  0  0  0  0  0  0  0
  -37.3967  -45.0704   19.6788 H   0  0  0  0  0  0  0  0  0  0  0  0
  -41.2246  -45.7700   22.6398 H   0  0  0  0  0  0  0  0  0  0  0  0
  -41.4540  -44.3120   21.6836 H   0  0  0  0  0  0  0  0  0  0  0  0
  -44.2014  -46.3253   20.4048 H   0  0  0  0  0  0  0  0  0  0  0  0
  -43.7102  -44.7461   21.0470 H   0  0  0  0  0  0  0  0  0  0  0  0
  -43.6763  -46.1787   22.0932 H   0  0  0  0  0  0  0  0  0  0  0  0
  -42.5649  -48.0590   19.9227 H   0  0  0  0  0  0  0  0  0  0  0  0
  -42.0442  -48.0201   21.6182 H   0  0  0  0  0  0  0  0  0  0  0  0
  -40.8501  -47.8349   20.3190 H   0  0  0  0  0  0  0  0  0  0  0  0
  -37.4346  -44.0331   24.5712 H   0  0  0  0  0  0  0  0  0  0  0  0
  -36.0359  -44.7121   23.6716 H   0  0  0  0  0  0  0  0  0  0  0  0
  -36.7914  -43.1749   23.1303 H   0  0  0  0  0  0  0  0  0  0  0  0
  -39.1736  -47.5686   21.3995 H   0  0  0  0  0  0  0  0  0  0  0  0
  -36.4630  -46.8823   23.8068 H   0  0  0  0  0  0  0  0  0  0  0  0
  -37.3148  -48.1647   22.9746 H   0  0  0  0  0  0  0  0  0  0  0  0
  1  2  2  0
  1  5  1  0
  2  6  1  0
  3  4  1  0
  3  6  2  0
  4  5  2  0
  4 10  1  0
  5 19  1  0
  6 20  1  0
  7 10  1  0
  7 15  1  0
  7 18  2  0
  8 15  1  0
  8 16  1  0
  8 17  2  0
  9 10  1  0
  9 11  1  0
 10 16  1  1
 11 12  1  0
 11 13  1  0
 11 19  1  0
 14 15  1  0
  1 21  1  0
  2 22  1  0
  3 23  1  0
  9 24  1  0
  9 25  1  0
 12 26  1  0
 12 27  1  0
 12 28  1  0
 13 29  1  0
 13 30  1  0
 13 31  1  0
 14 32  1  0
 14 33  1  0
 14 34  1  0
 16 35  1  0
 17 36  1  0
 17 37  1  0
M  CHG  1  17   1
M  END
$$$$
lig_32
     RDKit          3D

 46 49  0  0  0  0  0  0  0  0999 V2000
  -34.3135  -45.2077   17.1876 C   0  0  0  0  0  0  0  0  0  0  0  0
  -34.1973  -44.2951   16.1500 C   0  0  0  0  0  0  0  0  0  0  0  0
  -39.1764  -45.0011   16.9541 C   0  0  0  0  0  0  0  0  0  0  0  0
  -40.4542  -45.1821   17.4918 C   0  0  0  0  0  0  0  0  0  0  0  0
  -35.5656  -45.4789   17.7323 C   0  0  0  0  0  0  0  0  0  0  0  0
  -38.2381  -45.1951   19.1528 C   0  0  0  0  0  0  0  0  0  0  0  0
  -35.3543  -43.6914   15.6932 C   0  0  0  0  0  0  0  0  0  0  0  0
  -38.0382  -45.0149   17.7732 C   0  0  0  0  0  0  0  0  0  0  0  0
  -39.5193  -45.3544   19.7145 C   0  0  0  0  0  0  0  0  0  0  0  0
  -40.6249  -45.3728   18.8641 C   0  0  0  0  0  0  0  0  0  0  0  0
  -36.6860  -44.8194   17.2216 C   0  0  0  0  0  0  0  0  0  0  0  0
  -38.8939  -44.3714   21.9499 C   0  0  0  0  0  0  0  0  0  0  0  0
  -37.9558  -46.3933   22.5507 C   0  0  0  0  0  0  0  0  0  0  0  0
  -41.1544  -45.4253   21.6300 C   0  0  0  0  0  0  0  0  0  0  0  0
  -39.6895  -45.4757   21.2056 C   0  0  1  0  0  0  0  0  0  0  0  0
  -42.0923  -46.0925   20.6093 C   0  0  0  0  0  0  0  0  0  0  0  0
  -43.5439  -45.7704   21.0003 C   0  0  0  0  0  0  0  0  0  0  0  0
  -41.9410  -47.6194   20.5506 C   0  0  0  0  0  0  0  0  0  0  0  0
  -36.8680  -44.2891   23.4685 C   0  0  0  0  0  0  0  0  0  0  0  0
  -36.5864  -43.9319   16.1983 N   0  0  0  0  0  0  0  0  0  0  0  0
  -37.8638  -45.0312   22.7065 N   0  0  0  0  0  0  0  0  0  0  0  0
  -39.0139  -46.7075   21.6935 N   0  0  0  0  0  0  0  0  0  0  0  0
  -37.1447  -47.3366   23.1280 N   0  0  0  0  0  4  0  0  0  0  0  0
  -39.0749  -43.1663   21.8840 O   0  0  0  0  0  0  0  0  0  0  0  0
  -41.9143  -45.5454   19.2901 O   0  0  0  0  0  0  0  0  0  0  0  0
  -33.4324  -45.7079   17.5781 H   0  0  0  0  0  0  0  0  0  0  0  0
  -33.2326  -44.0649   15.7136 H   0  0  0  0  0  0  0  0  0  0  0  0
  -39.0846  -44.8594   15.8793 H   0  0  0  0  0  0  0  0  0  0  0  0
  -41.3151  -45.1774   16.8279 H   0  0  0  0  0  0  0  0  0  0  0  0
  -35.6446  -46.1977   18.5425 H   0  0  0  0  0  0  0  0  0  0  0  0
  -37.3767  -45.1829   19.8192 H   0  0  0  0  0  0  0  0  0  0  0  0
  -35.3216  -42.9701   14.8835 H   0  0  0  0  0  0  0  0  0  0  0  0
  -41.2830  -45.8704   22.6252 H   0  0  0  0  0  0  0  0  0  0  0  0
  -41.4515  -44.3711   21.7241 H   0  0  0  0  0  0  0  0  0  0  0  0
  -44.2483  -46.1902   20.2729 H   0  0  0  0  0  0  0  0  0  0  0  0
  -43.7158  -44.6876   21.0018 H   0  0  0  0  0  0  0  0  0  0  0  0
  -43.7926  -46.1628   21.9919 H   0  0  0  0  0  0  0  0  0  0  0  0
  -42.6909  -48.0552   19.8797 H   0  0  0  0  0  0  0  0  0  0  0  0
  -42.0619  -48.0718   21.5404 H   0  0  0  0  0  0  0  0  0  0  0  0
  -40.9725  -47.9242   20.1444 H   0  0  0  0  0  0  0  0  0  0  0  0
  -37.3730  -43.6990   24.2373 H   0  0  0  0  0  0  0  0  0  0  0  0
  -36.1567  -44.9674   23.9434 H   0  0  0  0  0  0  0  0  0  0  0  0
  -36.3255  -43.6246   22.7896 H   0  0  0  0  0  0  0  0  0  0  0  0
  -39.2564  -47.6658   21.4559 H   0  0  0  0  0  0  0  0  0  0  0  0
  -36.3797  -47.0817   23.7462 H   0  0  0  0  0  0  0  0  0  0  0  0
  -37.2893  -48.3276   22.9503 H   0  0  0  0  0  0  0  0  0  0  0  0
  1  2  2  0
  1  5  1  0
  2  7  1  0
  3  4  2  0
  3  8  1  0
  4 10  1  0
  5 11  2  0
  6  8  2  0
  6  9  1  0
  7 20  2  0
  8 11  1  0
  9 10  2  0
  9 15  1  0
 10 25  1  0
 11 20  1  0
 12 15  1  0
 12 21  1  0
 12 24  2  0
 13 21  1  0
 13 22  1  0
 13 23  2  0
 14 15  1  0
 14 16  1  0
 15 22  1  1
 16 17  1  0
 16 18  1  0
 16 25  1  0
 19 21  1  0
  1 26  1  0
  2 27  1  0
  3 28  1  0
  4 29  1  0
  5 30  1  0
  6 31  1  0
  7 32  1  0
 14 33  1  0
 14 34  1  0
 17 35  1  0
 17 36  1  0
 17 37  1  0
 18 38  1  0
 18 39  1  0
 18 40  1  0
 19 41  1  0
 19 42  1  0
 19 43  1  0
 22 44  1  0
 23 45  1  0
 23 46  1  0
M  CHG  1  23   1
M  END
$$$$
lig_36
     RDKit          3D

 51 54  0  0  0  0  0  0  0  0999 V2000
  -33.3279  -45.7707   17.6348 C   0  0  0  0  0  0  0  0  0  0  0  0
  -32.3998  -46.3455   18.1337 C   0  0  0  0  0  0  0  0  0  0  0  0
  -39.3623  -44.9664   16.9291 C   0  0  0  0  0  0  0  0  0  0  0  0
  -40.6159  -45.1795   17.5073 C   0  0  0  0  0  0  0  0  0  0  0  0
  -35.7353  -45.3707   17.6195 C   0  0  0  0  0  0  0  0  0  0  0  0
  -38.3573  -45.1090   19.1034 C   0  0  0  0  0  0  0  0  0  0  0  0
  -34.3685  -44.1917   16.0671 C   0  0  0  0  0  0  0  0  0  0  0  0
  -36.6394  -43.8034   16.0925 C   0  0  0  0  0  0  0  0  0  0  0  0
  -34.4709  -45.1099   17.0961 C   0  0  0  0  0  0  0  0  0  0  0  0
  -38.2034  -44.9303   17.7156 C   0  0  0  0  0  0  0  0  0  0  0  0
  -36.8686  -44.7049   17.1328 C   0  0  0  0  0  0  0  0  0  0  0  0
  -39.6121  -45.3134   19.7042 C   0  0  0  0  0  0  0  0  0  0  0  0
  -40.7399  -45.3646   18.8857 C   0  0  0  0  0  0  0  0  0  0  0  0
  -38.9218  -44.3592   21.9394 C   0  0  0  0  0  0  0  0  0  0  0  0
  -37.9699  -46.3859   22.4991 C   0  0  0  0  0  0  0  0  0  0  0  0
  -41.1845  -45.4214   21.6644 C   0  0  0  0  0  0  0  0  0  0  0  0
  -39.7320  -45.4554   21.1980 C   0  0  1  0  0  0  0  0  0  0  0  0
  -42.1446  -46.1034   20.6742 C   0  0  0  0  0  0  0  0  0  0  0  0
  -31.2930  -47.0584   18.7654 C   0  0  0  0  0  0  0  0  0  0  0  0
  -43.5870  -45.7897   21.1020 C   0  0  0  0  0  0  0  0  0  0  0  0
  -41.9812  -47.6288   20.6169 C   0  0  0  0  0  0  0  0  0  0  0  0
  -36.8845  -44.2944   23.4477 C   0  0  0  0  0  0  0  0  0  0  0  0
  -35.4271  -43.5344   15.5474 N   0  0  0  0  0  0  0  0  0  0  0  0
  -37.8820  -45.0264   22.6768 N   0  0  0  0  0  0  0  0  0  0  0  0
  -39.0361  -46.6906   21.6487 N   0  0  0  0  0  0  0  0  0  0  0  0
  -37.1488  -47.3352   23.0523 N   0  0  0  0  0  4  0  0  0  0  0  0
  -39.1025  -43.1534   21.8874 O   0  0  0  0  0  0  0  0  0  0  0  0
  -42.0120  -45.5655   19.3470 O   0  0  0  0  0  0  0  0  0  0  0  0
  -39.3070  -44.8405   15.8501 H   0  0  0  0  0  0  0  0  0  0  0  0
  -41.4959  -45.2072   16.8697 H   0  0  0  0  0  0  0  0  0  0  0  0
  -35.8328  -46.1007   18.4221 H   0  0  0  0  0  0  0  0  0  0  0  0
  -37.4775  -45.0666   19.7444 H   0  0  0  0  0  0  0  0  0  0  0  0
  -33.4127  -43.9428   15.6166 H   0  0  0  0  0  0  0  0  0  0  0  0
  -37.4503  -43.2283   15.6535 H   0  0  0  0  0  0  0  0  0  0  0  0
  -41.2792  -45.8642   22.6644 H   0  0  0  0  0  0  0  0  0  0  0  0
  -41.4899  -44.3700   21.7632 H   0  0  0  0  0  0  0  0  0  0  0  0
  -30.3321  -46.6732   18.4135 H   0  0  0  0  0  0  0  0  0  0  0  0
  -31.3281  -46.9448   19.8531 H   0  0  0  0  0  0  0  0  0  0  0  0
  -31.3393  -48.1268   18.5347 H   0  0  0  0  0  0  0  0  0  0  0  0
  -44.3063  -46.2155   20.3930 H   0  0  0  0  0  0  0  0  0  0  0  0
  -43.7647  -44.7078   21.1026 H   0  0  0  0  0  0  0  0  0  0  0  0
  -43.8078  -46.1798   22.1009 H   0  0  0  0  0  0  0  0  0  0  0  0
  -42.7546  -48.0752   19.9804 H   0  0  0  0  0  0  0  0  0  0  0  0
  -42.0559  -48.0778   21.6126 H   0  0  0  0  0  0  0  0  0  0  0  0
  -41.0285  -47.9254   20.1692 H   0  0  0  0  0  0  0  0  0  0  0  0
  -37.3876  -43.7131   24.2246 H   0  0  0  0  0  0  0  0  0  0  0  0
  -36.1744  -44.9792   23.9152 H   0  0  0  0  0  0  0  0  0  0  0  0
  -36.3408  -43.6226   22.7771 H   0  0  0  0  0  0  0  0  0  0  0  0
  -39.2740  -47.6464   21.3970 H   0  0  0  0  0  0  0  0  0  0  0  0
  -36.3793  -47.0878   23.6680 H   0  0  0  0  0  0  0  0  0  0  0  0
  -37.2915  -48.3238   22.8598 H   0  0  0  0  0  0  0  0  0  0  0  0
  1  2  3  0
  1  9  1  0
  2 19  1  0
  3  4  2  0
  3 10  1  0
  4 13  1  0
  5  9  2  0
  5 11  1  0
  6 10  2  0
  6 12  1  0
  7  9  1  0
  7 23  2  0
  8 11  2  0
  8 23  1  0
 10 11  1  0
 12 13  2  0
 12 17  1  0
 13 28  1  0
 14 17  1  0
 14 24  1  0
 14 27  2  0
 15 24  1  0
 15 25  1  0
 15 26  2  0
 16 17  1  0
 16 18  1  0
 17 25  1  1
 18 20  1  0
 18 21  1  0
 18 28  1  0
 22 24  1  0
  3 29  1  0
  4 30  1  0
  5 31  1  0
  6 32  1  0
  7 33  1  0
  8 34  1  0
 16 35  1  0
 16 36  1  0
 19 37  1  0
 19 38  1  0
 19 39  1  0
 20 40  1  0
 20 41  1  0
 20 42  1  0
 21 43  1  0
 21 44  1  0
 21 45  1  0
 22 46  1  0
 22 47  1  0
 22 48  1  0
 25 49  1  0
 26 50  1  0
 26 51  1  0
M  CHG  1  26   1
M  END
$$$$
lig_41
     RDKit          3D

 46 48  0  0  0  0  0  0  0  0999 V2000
  -38.2269  -44.7624   17.0644 C   0  0  0  0  0  0  0  0  0  0  0  0
  -39.5768  -44.5604   17.3339 C   0  0  0  0  0  0  0  0  0  0  0  0
  -37.9747  -45.7935   19.2369 C   0  0  0  0  0  0  0  0  0  0  0  0
  -32.7872  -44.9903   16.2699 C   0  0  0  0  0  0  0  0  0  0  0  0
  -32.3168  -46.9590   18.0273 C   0  0  0  0  0  0  0  0  0  0  0  0
  -39.3311  -45.5899   19.5373 C   0  0  0  0  0  0  0  0  0  0  0  0
  -37.4150  -45.3730   18.0184 C   0  0  0  0  0  0  0  0  0  0  0  0
  -40.1109  -44.9604   18.5558 C   0  0  0  0  0  0  0  0  0  0  0  0
  -33.8108  -45.5729   16.9887 C   0  0  0  0  0  0  0  0  0  0  0  0
  -31.2907  -46.3793   17.3147 C   0  0  0  0  0  0  0  0  0  0  0  0
  -40.0510  -44.5866   21.6645 C   0  0  0  0  0  0  0  0  0  0  0  0
  -39.1501  -44.1974   22.5768 C   0  0  0  0  0  0  0  0  0  0  0  0
  -38.1360  -46.3214   22.6404 C   0  0  0  0  0  0  0  0  0  0  0  0
  -35.2167  -45.1406   16.8330 C   0  0  0  0  0  0  0  0  0  0  0  0
  -39.8976  -45.8944   20.9271 C   0  0  1  0  0  0  0  0  0  0  0  0
  -41.2115  -46.6866   20.8698 C   0  0  0  0  0  0  0  0  0  0  0  0
  -28.9955  -46.2409   16.8105 C   0  0  0  0  0  0  0  0  0  0  0  0
  -39.0969  -42.8186   23.1387 C   0  0  0  0  0  0  0  0  0  0  0  0
  -33.5914  -46.5646   17.8782 N   0  0  0  0  0  0  0  0  0  0  0  0
  -31.5065  -45.3848   16.4240 N   0  0  0  0  0  0  0  0  0  0  0  0
  -38.9577  -46.7625   21.6877 N   0  0  0  0  0  0  0  0  0  0  0  0
  -37.2805  -47.1014   23.2819 N   0  0  0  0  0  4  0  0  0  0  0  0
  -36.0320  -45.5918   17.8569 N   0  0  0  0  0  0  0  0  0  0  0  0
  -35.5234  -44.4383   15.8785 O   0  0  0  0  0  0  0  0  0  0  0  0
  -38.1330  -45.0306   22.9992 O   0  0  0  0  0  0  0  0  0  0  0  0
  -30.0246  -46.8714   17.5613 O   0  0  0  0  0  0  0  0  0  0  0  0
  -41.4001  -44.6793   18.7929 F   0  0  0  0  0  0  0  0  0  0  0  0
  -37.8080  -42.4628   23.4036 F   0  0  0  0  0  0  0  0  0  0  0  0
  -37.8496  -44.4315   16.1044 H   0  0  0  0  0  0  0  0  0  0  0  0
  -40.2096  -44.0702   16.6005 H   0  0  0  0  0  0  0  0  0  0  0  0
  -37.3159  -46.2480   19.9740 H   0  0  0  0  0  0  0  0  0  0  0  0
  -32.9477  -44.1873   15.5603 H   0  0  0  0  0  0  0  0  0  0  0  0
  -32.1509  -47.7573   18.7400 H   0  0  0  0  0  0  0  0  0  0  0  0
  -40.8464  -43.9105   21.3610 H   0  0  0  0  0  0  0  0  0  0  0  0
  -41.5254  -47.0029   21.8713 H   0  0  0  0  0  0  0  0  0  0  0  0
  -41.0879  -47.5958   20.2679 H   0  0  0  0  0  0  0  0  0  0  0  0
  -42.0376  -46.1147   20.4371 H   0  0  0  0  0  0  0  0  0  0  0  0
  -28.0512  -46.7143   17.0942 H   0  0  0  0  0  0  0  0  0  0  0  0
  -28.9272  -45.1748   17.0516 H   0  0  0  0  0  0  0  0  0  0  0  0
  -29.1419  -46.3914   15.7358 H   0  0  0  0  0  0  0  0  0  0  0  0
  -39.6583  -42.7566   24.0732 H   0  0  0  0  0  0  0  0  0  0  0  0
  -39.4899  -42.0818   22.4310 H   0  0  0  0  0  0  0  0  0  0  0  0
  -38.9129  -47.7558   21.4763 H   0  0  0  0  0  0  0  0  0  0  0  0
  -37.2235  -48.0917   23.0753 H   0  0  0  0  0  0  0  0  0  0  0  0
  -36.6741  -46.7092   23.9930 H   0  0  0  0  0  0  0  0  0  0  0  0
  -35.5838  -46.1108   18.6096 H   0  0  0  0  0  0  0  0  0  0  0  0
  1  2  2  0
  1  7  1  0
  2  8  1  0
  3  6  1  0
  3  7  2  0
  4  9  2  0
  4 20  1  0
  5 10  1  0
  5 19  2  0
  6  8  2  0
  6 15  1  0
  7 23  1  0
  8 27  1  0
  9 14  1  0
  9 19  1  0
 10 20  2  0
 10 26  1  0
 11 12  2  0
 11 15  1  0
 12 18  1  0
 12 25  1  0
 13 21  1  0
 13 22  2  0
 13 25  1  0
 14 23  1  0
 14 24  2  0
 15 16  1  6
 15 21  1  0
 17 26  1  0
 18 28  1  0
  1 29  1  0
  2 30  1  0
  3 31  1  0
  4 32  1  0
  5 33  1  0
 11 34  1  0
 16 35  1  0
 16 36  1  0
 16 37  1  0
 17 38  1  0
 17 39  1  0
 17 40  1  0
 18 41  1  0
 18 42  1  0
 21 43  1  0
 22 44  1  0
 22 45  1  0
 23 46  1  0
M  CHG  1  22   1
M  END
$$$$
lig_45
     RDKit          3D

 43 45  0  0  0  0  0  0  0  0999 V2000
  -38.2195  -44.8055   17.0642 C   0  0  0  0  0  0  0  0  0  0  0  0
  -39.5671  -44.6062   17.3433 C   0  0  0  0  0  0  0  0  0  0  0  0
  -37.9274  -45.8168   19.2363 C   0  0  0  0  0  0  0  0  0  0  0  0
  -32.8326  -44.7993   16.0919 C   0  0  0  0  0  0  0  0  0  0  0  0
  -39.2882  -45.6183   19.5460 C   0  0  0  0  0  0  0  0  0  0  0  0
  -37.3800  -45.3986   18.0108 C   0  0  0  0  0  0  0  0  0  0  0  0
  -40.0843  -44.9987   18.5703 C   0  0  0  0  0  0  0  0  0  0  0  0
  -33.8186  -45.3799   16.8575 C   0  0  0  0  0  0  0  0  0  0  0  0
  -31.9738  -46.2686   17.3935 C   0  0  0  0  0  0  0  0  0  0  0  0
  -40.0155  -44.5986   21.6655 C   0  0  0  0  0  0  0  0  0  0  0  0
  -39.1273  -44.2021   22.5865 C   0  0  0  0  0  0  0  0  0  0  0  0
  -38.1011  -46.3206   22.6634 C   0  0  0  0  0  0  0  0  0  0  0  0
  -35.2295  -45.0628   16.7765 C   0  0  0  0  0  0  0  0  0  0  0  0
  -39.8536  -45.9118   20.9393 C   0  0  1  0  0  0  0  0  0  0  0  0
  -41.1694  -46.7041   20.8953 C   0  0  0  0  0  0  0  0  0  0  0  0
  -30.8639  -47.0676   17.9426 C   0  0  0  0  0  0  0  0  0  0  0  0
  -39.0931  -42.8220   23.1470 C   0  0  0  0  0  0  0  0  0  0  0  0
  -33.2567  -46.3121   17.6985 N   0  0  0  0  0  0  0  0  0  0  0  0
  -38.9118  -46.7694   21.7052 N   0  0  0  0  0  0  0  0  0  0  0  0
  -37.2460  -47.0957   23.3110 N   0  0  0  0  0  4  0  0  0  0  0  0
  -35.9846  -45.5803   17.8219 N   0  0  0  0  0  0  0  0  0  0  0  0
  -35.6415  -44.3664   15.8554 O   0  0  0  0  0  0  0  0  0  0  0  0
  -31.6442  -45.3616   16.4260 O   0  0  0  0  0  0  0  0  0  0  0  0
  -38.1109  -45.0294   23.0224 O   0  0  0  0  0  0  0  0  0  0  0  0
  -41.3720  -44.7195   18.8185 F   0  0  0  0  0  0  0  0  0  0  0  0
  -29.6731  -46.7122   17.3861 F   0  0  0  0  0  0  0  0  0  0  0  0
  -37.8091  -42.4454   23.4058 F   0  0  0  0  0  0  0  0  0  0  0  0
  -37.8708  -44.4795   16.0927 H   0  0  0  0  0  0  0  0  0  0  0  0
  -40.2080  -44.1230   16.6125 H   0  0  0  0  0  0  0  0  0  0  0  0
  -37.2604  -46.2602   19.9725 H   0  0  0  0  0  0  0  0  0  0  0  0
  -32.8113  -44.0353   15.3295 H   0  0  0  0  0  0  0  0  0  0  0  0
  -40.8114  -43.9270   21.3525 H   0  0  0  0  0  0  0  0  0  0  0  0
  -41.4770  -47.0147   21.9006 H   0  0  0  0  0  0  0  0  0  0  0  0
  -41.0530  -47.6162   20.2969 H   0  0  0  0  0  0  0  0  0  0  0  0
  -41.9996  -46.1334   20.4680 H   0  0  0  0  0  0  0  0  0  0  0  0
  -31.0203  -48.1300   17.7385 H   0  0  0  0  0  0  0  0  0  0  0  0
  -30.7824  -46.9210   19.0222 H   0  0  0  0  0  0  0  0  0  0  0  0
  -39.6519  -42.7678   24.0836 H   0  0  0  0  0  0  0  0  0  0  0  0
  -39.5018  -42.0916   22.4413 H   0  0  0  0  0  0  0  0  0  0  0  0
  -38.8603  -47.7628   21.4962 H   0  0  0  0  0  0  0  0  0  0  0  0
  -37.1824  -48.0855   23.1030 H   0  0  0  0  0  0  0  0  0  0  0  0
  -36.6478  -46.7015   24.0276 H   0  0  0  0  0  0  0  0  0  0  0  0
  -35.4985  -46.0857   18.5602 H   0  0  0  0  0  0  0  0  0  0  0  0
  1  2  2  0
  1  6  1  0
  2  7  1  0
  3  5  1  0
  3  6  2  0
  4  8  2  0
  4 23  1  0
  5  7  2  0
  5 14  1  0
  6 21  1  0
  7 25  1  0
  8 13  1  0
  8 18  1  0
  9 16  1  0
  9 18  2  0
  9 23  1  0
 10 11  2  0
 10 14  1  0
 11 17  1  0
 11 24  1  0
 12 19  1  0
 12 20  2  0
 12 24  1  0
 13 21  1  0
 13 22  2  0
 14 15  1  6
 14 19  1  0
 16 26  1  0
 17 27  1  0
  1 28  1  0
  2 29  1  0
  3 30  1  0
  4 31  1  0
 10 32  1  0
 15 33  1  0
 15 34  1  0
 15 35  1  0
 16 36  1  0
 16 37  1  0
 17 38  1  0
 17 39  1  0
 19 40  1  0
 20 41  1  0
 20 42  1  0
 21 43  1  0
M  CHG  1  20   1
M  END
$$$$
lig_67
     RDKit          3D

 48 50  0  0  0  0  0  0  0  0999 V2000
  -38.1986  -44.7279   17.0306 C   0  0  0  0  0  0  0  0  0  0  0  0
  -39.5465  -44.5151   17.3023 C   0  0  0  0  0  0  0  0  0  0  0  0
  -37.9581  -45.7840   19.1932 C   0  0  0  0  0  0  0  0  0  0  0  0
  -32.7541  -44.9904   16.2592 C   0  0  0  0  0  0  0  0  0  0  0  0
  -32.3064  -46.9624   18.0197 C   0  0  0  0  0  0  0  0  0  0  0  0
  -39.3098  -45.5627   19.4988 C   0  0  0  0  0  0  0  0  0  0  0  0
  -37.3934  -45.3552   17.9797 C   0  0  0  0  0  0  0  0  0  0  0  0
  -40.0830  -44.9185   18.5225 C   0  0  0  0  0  0  0  0  0  0  0  0
  -33.7860  -45.5696   16.9685 C   0  0  0  0  0  0  0  0  0  0  0  0
  -31.2723  -46.3866   17.3159 C   0  0  0  0  0  0  0  0  0  0  0  0
  -38.1808  -46.3253   22.6421 C   0  0  0  0  0  0  0  0  0  0  0  0
  -35.1891  -45.1309   16.8037 C   0  0  0  0  0  0  0  0  0  0  0  0
  -40.1407  -44.6357   21.6789 C   0  0  1  0  0  0  0  0  0  0  0  0
  -38.8211  -44.1050   22.2297 C   0  0  1  0  0  0  0  0  0  0  0  0
  -39.8943  -45.9153   20.8681 C   0  0  1  0  0  0  0  0  0  0  0  0
  -41.1730  -46.7582   20.7373 C   0  0  0  0  0  0  0  0  0  0  0  0
  -28.9721  -46.2585   16.8315 C   0  0  0  0  0  0  0  0  0  0  0  0
  -39.0243  -42.8457   23.0550 C   0  0  0  0  0  0  0  0  0  0  0  0
  -33.5779  -46.5628   17.8595 N   0  0  0  0  0  0  0  0  0  0  0  0
  -31.4764  -45.3906   16.4240 N   0  0  0  0  0  0  0  0  0  0  0  0
  -38.9439  -46.7526   21.6370 N   0  0  0  0  0  0  0  0  0  0  0  0
  -37.3490  -47.1276   23.2894 N   0  0  0  0  0  4  0  0  0  0  0  0
  -36.0123  -45.5842   17.8199 N   0  0  0  0  0  0  0  0  0  0  0  0
  -35.4868  -44.4226   15.8509 O   0  0  0  0  0  0  0  0  0  0  0  0
  -38.2113  -45.0641   23.0848 O   0  0  0  0  0  0  0  0  0  0  0  0
  -30.0107  -46.8851   17.5725 O   0  0  0  0  0  0  0  0  0  0  0  0
  -41.3731  -44.6411   18.7585 F   0  0  0  0  0  0  0  0  0  0  0  0
  -40.9542  -44.9286   22.7335 F   0  0  0  0  0  0  0  0  0  0  0  0
  -37.7991  -42.3847   23.4334 F   0  0  0  0  0  0  0  0  0  0  0  0
  -37.8179  -44.3943   16.0727 H   0  0  0  0  0  0  0  0  0  0  0  0
  -40.1765  -44.0186   16.5706 H   0  0  0  0  0  0  0  0  0  0  0  0
  -37.3060  -46.2595   19.9234 H   0  0  0  0  0  0  0  0  0  0  0  0
  -32.9054  -44.1858   15.5493 H   0  0  0  0  0  0  0  0  0  0  0  0
  -32.1499  -47.7612   18.7340 H   0  0  0  0  0  0  0  0  0  0  0  0
  -40.6523  -43.8688   21.0873 H   0  0  0  0  0  0  0  0  0  0  0  0
  -38.1129  -43.8742   21.4259 H   0  0  0  0  0  0  0  0  0  0  0  0
  -41.4954  -47.1343   21.7155 H   0  0  0  0  0  0  0  0  0  0  0  0
  -41.0033  -47.6329   20.0982 H   0  0  0  0  0  0  0  0  0  0  0  0
  -42.0081  -46.1916   20.3159 H   0  0  0  0  0  0  0  0  0  0  0  0
  -28.0331  -46.7385   17.1213 H   0  0  0  0  0  0  0  0  0  0  0  0
  -28.8996  -45.1937   17.0765 H   0  0  0  0  0  0  0  0  0  0  0  0
  -29.1109  -46.4050   15.7552 H   0  0  0  0  0  0  0  0  0  0  0  0
  -39.5953  -43.0404   23.9671 H   0  0  0  0  0  0  0  0  0  0  0  0
  -39.5111  -42.0561   22.4760 H   0  0  0  0  0  0  0  0  0  0  0  0
  -38.8503  -47.7351   21.3924 H   0  0  0  0  0  0  0  0  0  0  0  0
  -37.2607  -48.1041   23.0329 H   0  0  0  0  0  0  0  0  0  0  0  0
  -36.7838  -46.7634   24.0480 H   0  0  0  0  0  0  0  0  0  0  0  0
  -35.5706  -46.1117   18.5706 H   0  0  0  0  0  0  0  0  0  0  0  0
  1  2  2  0
  1  7  1  0
  2  8  1  0
  3  6  1  0
  3  7  2  0
  4  9  2  0
  4 20  1  0
  5 10  1  0
  5 19  2  0
  6  8  2  0
  6 15  1  0
  7 23  1  0
  8 27  1  0
  9 12  1  0
  9 19  1  0
 10 20  2  0
 10 26  1  0
 11 21  1  0
 11 22  2  0
 11 25  1  0
 12 23  1  0
 12 24  2  0
 13 14  1  0
 13 15  1  0
 13 28  1  0
 14 18  1  0
 14 25  1  0
 15 16  1  6
 15 21  1  0
 17 26  1  0
 18 29  1  0
  1 30  1  0
  2 31  1  0
  3 32  1  0
  4 33  1  0
  5 34  1  0
 13 35  1  6
 14 36  1  6
 16 37  1  0
 16 38  1  0
 16 39  1  0
 17 40  1  0
 17 41  1  0
 17 42  1  0
 18 43  1  0
 18 44  1  0
 21 45  1  0
 22 46  1  0
 22 47  1  0
 23 48  1  0
M  CHG  1  22   1
M  END
$$$$
lig_69
     RDKit          3D

 52 55  0  0  0  0  0  0  0  0999 V2000
  -38.3102  -44.6858   17.0132 C   0  0  0  0  0  0  0  0  0  0  0  0
  -39.6543  -44.4823   17.3124 C   0  0  0  0  0  0  0  0  0  0  0  0
  -38.0379  -45.7876   19.1493 C   0  0  0  0  0  0  0  0  0  0  0  0
  -32.8431  -44.9774   16.2381 C   0  0  0  0  0  0  0  0  0  0  0  0
  -32.4539  -46.9534   18.0133 C   0  0  0  0  0  0  0  0  0  0  0  0
  -39.3828  -45.5739   19.4848 C   0  0  0  0  0  0  0  0  0  0  0  0
  -37.4926  -45.3299   17.9379 C   0  0  0  0  0  0  0  0  0  0  0  0
  -40.1715  -44.9090   18.5352 C   0  0  0  0  0  0  0  0  0  0  0  0
  -33.8936  -45.5432   16.9290 C   0  0  0  0  0  0  0  0  0  0  0  0
  -31.4018  -46.3907   17.3283 C   0  0  0  0  0  0  0  0  0  0  0  0
  -38.1702  -46.5120   22.5561 C   0  0  0  0  0  0  0  0  0  0  0  0
  -35.2912  -45.0907   16.7523 C   0  0  0  0  0  0  0  0  0  0  0  0
  -37.4340  -42.3260   23.4313 C   0  0  0  0  0  0  0  0  0  0  0  0
  -38.3750  -42.8627   24.4674 C   0  0  0  0  0  0  0  0  0  0  0  0
  -38.6819  -44.2430   22.2290 C   0  0  1  0  0  0  0  0  0  0  0  0
  -40.0585  -44.6755   21.7274 C   0  0  1  0  0  0  0  0  0  0  0  0
  -39.9257  -45.9426   20.8679 C   0  0  1  0  0  0  0  0  0  0  0  0
  -38.7415  -42.9502   23.0047 C   0  0  0  0  0  0  0  0  0  0  0  0
  -41.2530  -46.7111   20.7766 C   0  0  0  0  0  0  0  0  0  0  0  0
  -29.0941  -46.2999   16.8983 C   0  0  0  0  0  0  0  0  0  0  0  0
  -33.7140  -46.5385   17.8251 N   0  0  0  0  0  0  0  0  0  0  0  0
  -31.5744  -45.3943   16.4293 N   0  0  0  0  0  0  0  0  0  0  0  0
  -38.9901  -46.8592   21.5646 N   0  0  0  0  0  0  0  0  0  0  0  0
  -37.3730  -47.3811   23.1597 N   0  0  0  0  0  4  0  0  0  0  0  0
  -36.1143  -45.5493   17.7646 N   0  0  0  0  0  0  0  0  0  0  0  0
  -35.5814  -44.3763   15.8025 O   0  0  0  0  0  0  0  0  0  0  0  0
  -38.1050  -45.2651   23.0312 O   0  0  0  0  0  0  0  0  0  0  0  0
  -30.1553  -46.9065   17.6136 O   0  0  0  0  0  0  0  0  0  0  0  0
  -41.4551  -44.6275   18.7998 F   0  0  0  0  0  0  0  0  0  0  0  0
  -40.8386  -44.9492   22.8114 F   0  0  0  0  0  0  0  0  0  0  0  0
  -39.6981  -42.0334   22.5719 F   0  0  0  0  0  0  0  0  0  0  0  0
  -27.9596  -46.9310   17.3033 F   0  0  0  0  0  0  0  0  0  0  0  0
  -37.9402  -44.3297   16.0591 H   0  0  0  0  0  0  0  0  0  0  0  0
  -40.2964  -43.9702   16.6019 H   0  0  0  0  0  0  0  0  0  0  0  0
  -37.3717  -46.2734   19.8600 H   0  0  0  0  0  0  0  0  0  0  0  0
  -32.9706  -44.1717   15.5251 H   0  0  0  0  0  0  0  0  0  0  0  0
  -32.3211  -47.7514   18.7333 H   0  0  0  0  0  0  0  0  0  0  0  0
  -37.3377  -41.2515   23.3392 H   0  0  0  0  0  0  0  0  0  0  0  0
  -36.5166  -42.8735   23.2494 H   0  0  0  0  0  0  0  0  0  0  0  0
  -38.0717  -43.7541   25.0016 H   0  0  0  0  0  0  0  0  0  0  0  0
  -38.9120  -42.1467   25.0768 H   0  0  0  0  0  0  0  0  0  0  0  0
  -38.0129  -44.0621   21.3798 H   0  0  0  0  0  0  0  0  0  0  0  0
  -40.5519  -43.8667   21.1771 H   0  0  0  0  0  0  0  0  0  0  0  0
  -41.5447  -47.1055   21.7572 H   0  0  0  0  0  0  0  0  0  0  0  0
  -41.1621  -47.5695   20.1000 H   0  0  0  0  0  0  0  0  0  0  0  0
  -42.0774  -46.0870   20.4211 H   0  0  0  0  0  0  0  0  0  0  0  0
  -28.9945  -45.2386   17.1470 H   0  0  0  0  0  0  0  0  0  0  0  0
  -29.1950  -46.4519   15.8191 H   0  0  0  0  0  0  0  0  0  0  0  0
  -38.9594  -47.8349   21.2798 H   0  0  0  0  0  0  0  0  0  0  0  0
  -37.3526  -48.3548   22.8802 H   0  0  0  0  0  0  0  0  0  0  0  0
  -36.7706  -47.0727   23.9146 H   0  0  0  0  0  0  0  0  0  0  0  0
  -35.6680  -46.0826   18.5089 H   0  0  0  0  0  0  0  0  0  0  0  0
  1  2  2  0
  1  7  1  0
  2  8  1  0
  3  6  1  0
  3  7  2  0
  4  9  2  0
  4 22  1  0
  5 10  1  0
  5 21  2  0
  6  8  2  0
  6 17  1  0
  7 25  1  0
  8 29  1  0
  9 12  1  0
  9 21  1  0
 10 22  2  0
 10 28  1  0
 11 23  1  0
 11 24  2  0
 11 27  1  0
 12 25  1  0
 12 26  2  0
 13 14  1  0
 13 18  1  0
 14 18  1  0
 15 16  1  0
 15 18  1  0
 15 27  1  0
 16 17  1  0
 16 30  1  0
 17 19  1  6
 17 23  1  0
 18 31  1  0
 20 28  1  0
 20 32  1  0
  1 33  1  0
  2 34  1  0
  3 35  1  0
  4 36  1  0
  5 37  1  0
 13 38  1  0
 13 39  1  0
 14 40  1  0
 14 41  1  0
 15 42  1  6
 16 43  1  6
 19 44  1  0
 19 45  1  0
 19 46  1  0
 20 47  1  0
 20 48  1  0
 23 49  1  0
 24 50  1  0
 24 51  1  0
 25 52  1  0
M  CHG  1  24   1
M  END
$$$$
lig_74
     RDKit          3D

 45 48  0  0  0  0  0  0  0  0999 V2000
  -29.8986  -46.6441   17.3497 C   0  0  0  0  0  0  0  0  0  0  0  0
  -31.5877  -45.2101   16.2984 C   0  0  0  0  0  0  0  0  0  0  0  0
  -38.2805  -44.7195   17.1426 C   0  0  0  0  0  0  0  0  0  0  0  0
  -39.6232  -44.5082   17.4349 C   0  0  0  0  0  0  0  0  0  0  0  0
  -32.9166  -44.8258   16.1613 C   0  0  0  0  0  0  0  0  0  0  0  0
  -37.9997  -45.7627   19.3052 C   0  0  0  0  0  0  0  0  0  0  0  0
  -32.2706  -46.8151   17.9247 C   0  0  0  0  0  0  0  0  0  0  0  0
  -37.3803  -43.9268   23.4564 C   0  0  0  0  0  0  0  0  0  0  0  0
  -31.2524  -46.2242   17.1916 C   0  0  0  0  0  0  0  0  0  0  0  0
  -39.3509  -45.5492   19.6316 C   0  0  0  0  0  0  0  0  0  0  0  0
  -37.4535  -45.3375   18.0800 C   0  0  0  0  0  0  0  0  0  0  0  0
  -40.1397  -44.9086   18.6638 C   0  0  0  0  0  0  0  0  0  0  0  0
  -38.1905  -44.8571   22.8522 C   0  0  0  0  0  0  0  0  0  0  0  0
  -33.8633  -45.4777   16.9414 C   0  0  0  0  0  0  0  0  0  0  0  0
  -38.1441  -46.2798   22.6333 C   0  0  0  0  0  0  0  0  0  0  0  0
  -35.2927  -45.1037   16.8335 C   0  0  0  0  0  0  0  0  0  0  0  0
  -40.3902  -44.7179   21.8007 C   0  0  0  0  0  0  0  0  0  0  0  0
  -39.9335  -45.9673   20.9954 C   0  0  1  0  0  0  0  0  0  0  0  0
  -41.1570  -46.8828   20.7721 C   0  0  0  0  0  0  0  0  0  0  0  0
  -28.7980  -46.9875   17.4797 N   0  0  0  0  0  0  0  0  0  0  0  0
  -33.5705  -46.4623   17.8230 N   0  0  0  0  0  0  0  0  0  0  0  0
  -37.9661  -42.6859   23.3732 N   0  0  0  0  0  0  0  0  0  0  0  0
  -39.1313  -42.8186   22.7429 N   0  0  0  0  0  0  0  0  0  0  0  0
  -38.9895  -46.8083   21.7942 N   0  0  0  0  0  0  0  0  0  0  0  0
  -39.2452  -44.1120   22.4346 N   0  0  0  0  0  0  0  0  0  0  0  0
  -37.2378  -47.0744   23.2955 N   0  0  0  0  0  4  0  0  0  0  0  0
  -36.0706  -45.5588   17.8863 N   0  0  0  0  0  0  0  0  0  0  0  0
  -35.6499  -44.4284   15.8757 O   0  0  0  0  0  0  0  0  0  0  0  0
  -41.4333  -44.6519   18.9038 F   0  0  0  0  0  0  0  0  0  0  0  0
  -30.8193  -44.7246   15.7151 H   0  0  0  0  0  0  0  0  0  0  0  0
  -37.8785  -44.4054   16.1907 H   0  0  0  0  0  0  0  0  0  0  0  0
  -40.2656  -44.0332   16.7082 H   0  0  0  0  0  0  0  0  0  0  0  0
  -33.2035  -44.0462   15.4711 H   0  0  0  0  0  0  0  0  0  0  0  0
  -37.3624  -46.2679   20.0159 H   0  0  0  0  0  0  0  0  0  0  0  0
  -32.0093  -47.6023   18.6164 H   0  0  0  0  0  0  0  0  0  0  0  0
  -36.4301  -44.1376   23.9244 H   0  0  0  0  0  0  0  0  0  0  0  0
  -40.8587  -43.9929   21.1189 H   0  0  0  0  0  0  0  0  0  0  0  0
  -41.1169  -45.0217   22.5686 H   0  0  0  0  0  0  0  0  0  0  0  0
  -41.5740  -47.1821   21.7450 H   0  0  0  0  0  0  0  0  0  0  0  0
  -41.9213  -46.3394   20.1972 H   0  0  0  0  0  0  0  0  0  0  0  0
  -40.8473  -47.7791   20.2147 H   0  0  0  0  0  0  0  0  0  0  0  0
  -37.2261  -48.0612   23.1338 H   0  0  0  0  0  0  0  0  0  0  0  0
  -36.5905  -46.6654   23.9387 H   0  0  0  0  0  0  0  0  0  0  0  0
  -35.6036  -46.1021   18.5839 H   0  0  0  0  0  0  0  0  0  0  0  0
  -39.0075  -47.8018   21.6815 H   0  0  0  0  0  0  0  0  0  0  0  0
  1  9  1  0
  1 20  3  0
  2  5  2  0
  2  9  1  0
  3  4  2  0
  3 11  1  0
  4 12  1  0
  5 14  1  0
  6 10  1  0
  6 11  2  0
  7  9  2  0
  7 21  1  0
  8 13  2  0
  8 22  1  0
 10 12  2  0
 10 18  1  0
 11 27  1  0
 12 29  1  0
 13 15  1  0
 13 25  1  0
 14 16  1  0
 14 21  2  0
 15 24  1  0
 15 26  2  0
 16 27  1  0
 16 28  2  0
 17 18  1  0
 17 25  1  0
 18 19  1  6
 18 24  1  0
 22 23  2  0
 23 25  1  0
  2 30  1  0
  3 31  1  0
  4 32  1  0
  5 33  1  0
  6 34  1  0
  7 35  1  0
  8 36  1  0
 17 37  1  0
 17 38  1  0
 19 39  1  0
 19 40  1  0
 19 41  1  0
 26 42  1  0
 26 43  1  0
 27 44  1  0
 24 45  1  0
M  CHG  1  26   1
M  END
$$$$
lig_81
     RDKit          3D

 45 48  0  0  0  0  0  0  0  0999 V2000
  -29.8991  -46.6444   17.3498 C   0  0  0  0  0  0  0  0  0  0  0  0
  -31.5880  -45.2092   16.2997 C   0  0  0  0  0  0  0  0  0  0  0  0
  -38.2803  -44.7175   17.1436 C   0  0  0  0  0  0  0  0  0  0  0  0
  -39.6235  -44.5074   17.4340 C   0  0  0  0  0  0  0  0  0  0  0  0
  -32.9168  -44.8244   16.1631 C   0  0  0  0  0  0  0  0  0  0  0  0
  -38.0005  -45.7575   19.3081 C   0  0  0  0  0  0  0  0  0  0  0  0
  -32.2711  -46.8151   17.9250 C   0  0  0  0  0  0  0  0  0  0  0  0
  -39.0485  -42.8007   22.7748 C   0  0  0  0  0  0  0  0  0  0  0  0
  -31.2529  -46.2240   17.1922 C   0  0  0  0  0  0  0  0  0  0  0  0
  -39.3521  -45.5442   19.6329 C   0  0  0  0  0  0  0  0  0  0  0  0
  -37.4536  -45.3336   18.0825 C   0  0  0  0  0  0  0  0  0  0  0  0
  -40.1408  -44.9069   18.6628 C   0  0  0  0  0  0  0  0  0  0  0  0
  -33.8636  -45.4764   16.9430 C   0  0  0  0  0  0  0  0  0  0  0  0
  -38.2345  -44.8187   22.8526 C   0  0  0  0  0  0  0  0  0  0  0  0
  -38.1576  -46.2394   22.6464 C   0  0  0  0  0  0  0  0  0  0  0  0
  -35.2928  -45.1019   16.8354 C   0  0  0  0  0  0  0  0  0  0  0  0
  -40.4180  -44.7168   21.7933 C   0  0  0  0  0  0  0  0  0  0  0  0
  -39.9371  -45.9630   20.9952 C   0  0  1  0  0  0  0  0  0  0  0  0
  -41.1466  -46.8959   20.7665 C   0  0  0  0  0  0  0  0  0  0  0  0
  -28.7986  -46.9881   17.4796 N   0  0  0  0  0  0  0  0  0  0  0  0
  -33.5710  -46.4617   17.8239 N   0  0  0  0  0  0  0  0  0  0  0  0
  -37.8875  -42.7445   23.3970 N   0  0  0  0  0  0  0  0  0  0  0  0
  -37.3729  -44.0340   23.4583 N   0  0  0  0  0  0  0  0  0  0  0  0
  -38.9871  -46.7880   21.8050 N   0  0  0  0  0  0  0  0  0  0  0  0
  -39.2924  -44.0810   22.4313 N   0  0  0  0  0  0  0  0  0  0  0  0
  -37.2387  -47.0061   23.3224 N   0  0  0  0  0  4  0  0  0  0  0  0
  -36.0706  -45.5553   17.8892 N   0  0  0  0  0  0  0  0  0  0  0  0
  -35.6500  -44.4278   15.8767 O   0  0  0  0  0  0  0  0  0  0  0  0
  -41.4358  -44.6547   18.8997 F   0  0  0  0  0  0  0  0  0  0  0  0
  -30.8196  -44.7235   15.7166 H   0  0  0  0  0  0  0  0  0  0  0  0
  -37.8775  -44.4039   16.1919 H   0  0  0  0  0  0  0  0  0  0  0  0
  -40.2657  -44.0341   16.7060 H   0  0  0  0  0  0  0  0  0  0  0  0
  -33.2036  -44.0443   15.4734 H   0  0  0  0  0  0  0  0  0  0  0  0
  -37.3635  -46.2614   20.0200 H   0  0  0  0  0  0  0  0  0  0  0  0
  -32.0099  -47.6030   18.6160 H   0  0  0  0  0  0  0  0  0  0  0  0
  -39.6965  -41.9604   22.5737 H   0  0  0  0  0  0  0  0  0  0  0  0
  -40.8975  -44.0052   21.1051 H   0  0  0  0  0  0  0  0  0  0  0  0
  -41.1423  -45.0309   22.5592 H   0  0  0  0  0  0  0  0  0  0  0  0
  -41.5669  -47.1969   21.7374 H   0  0  0  0  0  0  0  0  0  0  0  0
  -41.9138  -46.3651   20.1837 H   0  0  0  0  0  0  0  0  0  0  0  0
  -40.8206  -47.7901   20.2151 H   0  0  0  0  0  0  0  0  0  0  0  0
  -37.2030  -47.9938   23.1702 H   0  0  0  0  0  0  0  0  0  0  0  0
  -36.6059  -46.5762   23.9664 H   0  0  0  0  0  0  0  0  0  0  0  0
  -35.6035  -46.0974   18.5878 H   0  0  0  0  0  0  0  0  0  0  0  0
  -38.9890  -47.7823   21.6980 H   0  0  0  0  0  0  0  0  0  0  0  0
  1  9  1  0
  1 20  3  0
  2  5  2  0
  2  9  1  0
  3  4  2  0
  3 11  1  0
  4 12  1  0
  5 13  1  0
  6 10  1  0
  6 11  2  0
  7  9  2  0
  7 21  1  0
  8 22  2  0
  8 25  1  0
 10 12  2  0
 10 18  1  0
 11 27  1  0
 12 29  1  0
 13 16  1  0
 13 21  2  0
 14 15  1  0
 14 23  2  0
 14 25  1  0
 15 24  1  0
 15 26  2  0
 16 27  1  0
 16 28  2  0
 17 18  1  0
 17 25  1  0
 18 19  1  6
 18 24  1  0
 22 23  1  0
  2 30  1  0
  3 31  1  0
  4 32  1  0
  5 33  1  0
  6 34  1  0
  7 35  1  0
  8 36  1  0
 17 37  1  0
 17 38  1  0
 19 39  1  0
 19 40  1  0
 19 41  1  0
 26 42  1  0
 26 43  1  0
 27 44  1  0
 24 45  1  0
M  CHG  1  26   1
M  END
$$$$
