pyflare_stream_745872_1:1
  xed2sdf           3D
 
 39 41  0  0  1  0  0  0  0  0999 V2000
  -40.9510  -47.0933   20.9930 C   0  0  0  0  0  0  0  0  0  0  0  0
  -39.7392  -46.1383   20.9233 C   0  0  0  0  0  0  0  0  0  0  0  0
  -39.3822  -45.6954   19.4921 C   0  0  0  0  0  0  0  0  0  0  0  0
  -38.0570  -45.6201   19.1188 C   0  0  0  0  0  0  0  0  0  0  0  0
  -37.6585  -45.2084   17.8545 C   0  0  0  0  0  0  0  0  0  0  0  0
  -36.2463  -45.1278   17.4932 C   0  0  0  0  0  0  0  0  0  0  0  0
  -35.8176  -44.2992   16.4655 C   0  0  0  0  0  0  0  0  0  0  0  0
  -34.4890  -44.2167   16.1248 C   0  0  0  0  0  0  0  0  0  0  0  0
  -33.5553  -44.9641   16.8041 C   0  0  0  0  0  0  0  0  0  0  0  0
  -33.9582  -45.7927   17.8256 C   0  0  0  0  0  0  0  0  0  0  0  0
  -35.2874  -45.8721   18.1659 C   0  0  0  0  0  0  0  0  0  0  0  0
  -38.6479  -44.8690   16.9451 C   0  0  0  0  0  0  0  0  0  0  0  0
  -39.9727  -44.9346   17.2927 C   0  0  0  0  0  0  0  0  0  0  0  0
  -40.3400  -45.3397   18.5569 C   0  0  0  0  0  0  0  0  0  0  0  0
  -41.6429  -45.3764   18.8623 F   0  0  0  0  0  0  0  0  0  0  0  0
  -40.0950  -44.9445   21.8422 C   0  0  0  0  0  0  0  0  0  0  0  0
  -38.8982  -44.0099   22.0777 C   0  0  0  0  0  0  0  0  0  0  0  0
  -37.6443  -44.9406   22.9830 S   0  0  0  0  0  0  0  0  0  0  0  0
  -37.7286  -46.5788   22.3529 C   0  0  0  0  0  0  0  0  0  0  0  0
  -36.7635  -47.3633   22.8424 N   0  0  0  0  0  0  0  0  0  0  0  0
  -38.6724  -46.9827   21.4818 N   0  3  0  0  0  0  0  0  0  0  0  0
  -41.9880  -46.5010   20.8783 H   0  0  0  0  0  0  0  0  0  0  0  0
  -40.9472  -47.6343   22.0641 H   0  0  0  0  0  0  0  0  0  0  0  0
  -40.8616  -47.9269   20.1343 H   0  0  0  0  0  0  0  0  0  0  0  0
  -37.3600  -45.8642   19.7912 H   0  0  0  0  0  0  0  0  0  0  0  0
  -36.4814  -43.7457   15.9652 H   0  0  0  0  0  0  0  0  0  0  0  0
  -34.2009  -43.6118   15.3826 H   0  0  0  0  0  0  0  0  0  0  0  0
  -32.5882  -44.9053   16.5567 H   0  0  0  0  0  0  0  0  0  0  0  0
  -33.2830  -46.3386   18.3214 H   0  0  0  0  0  0  0  0  0  0  0  0
  -35.5629  -46.4817   18.9075 H   0  0  0  0  0  0  0  0  0  0  0  0
  -38.3994  -44.5750   16.0235 H   0  0  0  0  0  0  0  0  0  0  0  0
  -40.6752  -44.6849   16.6263 H   0  0  0  0  0  0  0  0  0  0  0  0
  -40.9814  -44.3165   21.3324 H   0  0  0  0  0  0  0  0  0  0  0  0
  -40.4690  -45.3541   22.9068 H   0  0  0  0  0  0  0  0  0  0  0  0
  -39.2406  -43.0593   22.7252 H   0  0  0  0  0  0  0  0  0  0  0  0
  -38.4524  -43.6394   21.0272 H   0  0  0  0  0  0  0  0  0  0  0  0
  -36.0980  -46.9947   23.4918 H   0  0  0  0  0  0  0  0  0  0  0  0
  -36.7055  -48.3212   22.5608 H   0  0  0  0  0  0  0  0  0  0  0  0
  -38.6297  -47.9342   21.1747 H   0  0  0  0  0  0  0  0  0  0  0  0
  2  1  1  0
  2  3  1  0
  2 16  1  0
  3  4  2  0
  4  5  1  0
  5  6  1  0
  5 12  2  0
  6  7  2  0
  7  8  1  0
  8  9  2  0
  9 10  1  0
 10 11  2  0
 11  6  1  0
 12 13  1  0
 13 14  2  0
 14  3  1  0
 14 15  1  0
 16 17  1  0
 17 18  1  0
 18 19  1  0
 19 20  1  0
 19 21  2  0
 21  2  1  0
  1 22  1  0
  1 23  1  0
  1 24  1  0
  4 25  1  0
  7 26  1  0
  8 27  1  0
  9 28  1  0
 10 29  1  0
 11 30  1  0
 12 31  1  0
 13 32  1  0
 16 33  1  0
 16 34  1  0
 17 35  1  0
 17 36  1  0
 20 37  1  0
 20 38  1  0
 21 39  1  0
M  CHG  1  21   1
M  END
>  <Alignment>
1

>  <Alns>
1

>  <Conformer>
1

>  <Confs>
1

>  <Excl Vol Pen>
0

>  <FScore>
-89.307

>  <FScore+P>
-85.813

>  <FSim>
0.781

>  <Field Penalty>
0

>  <Filename>
intermediate_bace_combination_02_biphenyl~11_spirocycles.sdf

>  <Ref>
lig_02

>  <SScore>
187.759

>  <SScore+P>
177.276

>  <SSim>
0.914

>  <Sim>
0.848

>  <_cresset_fieldpoints2>
 2
    -5     -39.094437     -47.398445      24.118176     -4.3419
    -5     -44.114136     -44.860878      17.624756     -1.2143
    -5     -35.377144     -47.202297      15.355723     -3.7624
    -5     -34.857101     -42.977402      19.136801     -4.1876
    -6     -42.927795     -45.337116      22.893572      2.1645
    -6     -37.942051     -43.225742      14.509739      4.5110
    -6     -32.438843     -42.968822      14.304252      2.3752
    -6     -35.078640     -48.906422      23.523247      7.5189
    -6     -37.584618     -49.532558      21.309652     10.8855
    -6     -40.627159     -41.990330      20.724518      2.3146
    -7     -38.804119     -48.760273      18.595306     -2.6118
    -7     -36.489853     -48.335728      20.039995     -3.0386
    -7     -39.007900     -42.193699      19.093859     -2.9051
    -7     -35.985935     -43.216293      20.197353     -3.1511
    -7     -36.810677     -47.434235      15.279388     -2.1017
    -7     -31.618555     -43.303455      14.557405     -0.9695
    -7     -34.872822     -46.488312      21.258038     -2.7792
    -7     -30.602741     -46.313610      17.811092     -0.9700
    -7     -40.547443     -43.796162      25.021061     -1.5098
    -7     -43.466076     -44.605007      21.676949     -1.6433
    -7     -39.627365     -47.719948      24.192034     -2.4489
    -8     -39.009701     -45.275352      18.221426      7.2539
    -8     -40.478283     -45.839622      19.891382      6.0083
    -8     -38.765762     -44.987568      22.223595      5.8001
    -8     -34.901608     -45.046104      17.148764      7.1894
    -8     -37.143349     -44.773270      17.023890      5.7775
    -8     -36.769703     -45.555553      18.331057      5.7765
    -8     -39.498203     -45.002861      20.858381      5.4872

$$$$
