pyflare_stream_747771_1:1
  xed2sdf           3D
 
 47 50  0  0  1  0  0  0  0  0999 V2000
  -31.8659  -44.6661   16.2747 C   0  0  0  0  0  0  0  0  0  0  0  0
  -33.0327  -44.1570   15.5968 O   0  0  0  0  0  0  0  0  0  0  0  0
  -34.2380  -44.3644   16.1412 C   0  0  0  0  0  0  0  0  0  0  0  0
  -34.4140  -45.0224   17.3483 C   0  0  0  0  0  0  0  0  0  0  0  0
  -35.6706  -45.2068   17.8673 C   0  0  0  0  0  0  0  0  0  0  0  0
  -36.7974  -44.7471   17.2010 C   0  0  0  0  0  0  0  0  0  0  0  0
  -38.1304  -44.9455   17.7567 C   0  0  0  0  0  0  0  0  0  0  0  0
  -39.2514  -45.0129   16.9440 C   0  0  0  0  0  0  0  0  0  0  0  0
  -40.5004  -45.2095   17.4809 C   0  0  0  0  0  0  0  0  0  0  0  0
  -40.6629  -45.3385   18.8420 C   0  0  0  0  0  0  0  0  0  0  0  0
  -39.5621  -45.2621   19.6748 C   0  0  0  0  0  0  0  0  0  0  0  0
  -38.3143  -45.0726   19.1248 C   0  0  0  0  0  0  0  0  0  0  0  0
  -39.7065  -45.3904   21.1936 C   0  0  0  0  0  0  0  0  0  0  0  0
  -41.1556  -45.3340   21.7264 C   0  0  0  0  0  0  0  0  0  0  0  0
  -42.1001  -46.1426   20.8167 C   0  0  0  0  0  0  0  0  0  0  0  0
  -42.0664  -45.5481   19.3949 C   0  0  0  0  0  0  0  0  0  0  0  0
  -39.0145  -46.5816   21.6692 N   0  0  0  0  0  0  0  0  0  0  0  0
  -37.9700  -46.2747   22.4396 C   0  0  0  0  0  0  0  0  0  0  0  0
  -37.1303  -47.1619   22.9972 N   0  0  0  0  0  0  0  0  0  0  0  0
  -37.9145  -44.9152   22.5595 N   0  3  0  0  0  0  0  0  0  0  0  0
  -36.9109  -44.2068   23.3380 C   0  0  0  0  0  0  0  0  0  0  0  0
  -38.8879  -44.3139   21.8990 C   0  0  0  0  0  0  0  0  0  0  0  0
  -39.0923  -43.0874   21.8994 O   0  0  0  0  0  0  0  0  0  0  0  0
  -36.6129  -44.0939   15.9913 C   0  0  0  0  0  0  0  0  0  0  0  0
  -35.3565  -43.9039   15.4727 C   0  0  0  0  0  0  0  0  0  0  0  0
  -30.8889  -44.3897   15.6352 H   0  0  0  0  0  0  0  0  0  0  0  0
  -31.7742  -44.1705   17.3640 H   0  0  0  0  0  0  0  0  0  0  0  0
  -31.9433  -45.8594   16.3791 H   0  0  0  0  0  0  0  0  0  0  0  0
  -33.6202  -45.3675   17.8482 H   0  0  0  0  0  0  0  0  0  0  0  0
  -35.7712  -45.6869   18.7376 H   0  0  0  0  0  0  0  0  0  0  0  0
  -39.1532  -44.9251   15.9536 H   0  0  0  0  0  0  0  0  0  0  0  0
  -41.2971  -45.2594   16.8786 H   0  0  0  0  0  0  0  0  0  0  0  0
  -37.5234  -45.0197   19.7329 H   0  0  0  0  0  0  0  0  0  0  0  0
  -41.1907  -45.7672   22.8450 H   0  0  0  0  0  0  0  0  0  0  0  0
  -41.5237  -44.1920   21.7311 H   0  0  0  0  0  0  0  0  0  0  0  0
  -43.2200  -46.0974   21.2447 H   0  0  0  0  0  0  0  0  0  0  0  0
  -41.7277  -47.2825   20.7786 H   0  0  0  0  0  0  0  0  0  0  0  0
  -42.6820  -46.2789   18.6684 H   0  0  0  0  0  0  0  0  0  0  0  0
  -42.6179  -44.4827   19.4232 H   0  0  0  0  0  0  0  0  0  0  0  0
  -39.2852  -47.5162   21.4384 H   0  0  0  0  0  0  0  0  0  0  0  0
  -37.2648  -48.1411   22.8450 H   0  0  0  0  0  0  0  0  0  0  0  0
  -36.3705  -46.8437   23.5642 H   0  0  0  0  0  0  0  0  0  0  0  0
  -35.8170  -44.5229   22.9594 H   0  0  0  0  0  0  0  0  0  0  0  0
  -37.0291  -44.4893   24.4981 H   0  0  0  0  0  0  0  0  0  0  0  0
  -37.0546  -43.0235   23.1977 H   0  0  0  0  0  0  0  0  0  0  0  0
  -37.4044  -43.7483   15.4893 H   0  0  0  0  0  0  0  0  0  0  0  0
  -35.2512  -43.4259   14.6004 H   0  0  0  0  0  0  0  0  0  0  0  0
  1  2  1  0
  2  3  1  0
  3  4  2  0
  4  5  1  0
  5  6  2  0
  6  7  1  0
  6 24  1  0
  7  8  2  0
  8  9  1  0
  9 10  2  0
 10 11  1  0
 11 12  2  0
 11 13  1  0
 12  7  1  0
 13 14  1  0
 13 17  1  0
 14 15  1  0
 15 16  1  0
 16 10  1  0
 17 18  1  0
 18 19  1  0
 18 20  2  0
 20 21  1  0
 20 22  1  0
 22 13  1  0
 22 23  2  0
 24 25  2  0
 25  3  1  0
  1 26  1  0
  1 27  1  0
  1 28  1  0
  4 29  1  0
  5 30  1  0
  8 31  1  0
  9 32  1  0
 12 33  1  0
 14 34  1  0
 14 35  1  0
 15 36  1  0
 15 37  1  0
 16 38  1  0
 16 39  1  0
 17 40  1  0
 19 41  1  0
 19 42  1  0
 21 43  1  0
 21 44  1  0
 21 45  1  0
 24 46  1  0
 25 47  1  0
M  CHG  1  20   1
M  END
>  <Alignment>
1

>  <Alns>
1

>  <Conformer>
1

>  <Confs>
1

>  <Excl Vol Pen>
0

>  <FScore>
-135.415

>  <FScore+P>
-132.971

>  <FSim>
0.916

>  <Field Penalty>
0

>  <Filename>
intermediate_bace_combination_03_biphenyl~16_spirocycles.sdf

>  <Ref>
lig_16

>  <SScore>
216.626

>  <SScore+P>
209.294

>  <SSim>
0.92

>  <Sim>
0.918

>  <_cresset_fieldpoints2>
 2
    -5     -32.566715     -42.950985      13.906494     -5.2643
    -5     -40.084049     -42.217602      20.729500    -19.3576
    -5     -35.957623     -47.065025      15.302732     -3.4489
    -6     -32.053589     -46.098759      18.932722      5.0237
    -6     -38.581764     -49.226681      21.932949     12.1164
    -6     -35.633705     -48.703861      23.932083      9.0500
    -6     -35.223602     -45.940056      20.901554      5.5310
    -6     -43.318958     -45.698238      16.394833      3.1018
    -6     -39.002281     -43.942657      14.086995      3.8119
    -6     -34.961399     -46.071922      24.605406      9.2174
    -7     -35.542789     -46.264420      20.986637     -3.0869
    -7     -36.323246     -42.951561      20.410315     -2.9756
    -7     -31.844042     -46.362911      19.146517     -1.3908
    -7     -43.638359     -44.180767      16.884010     -1.4937
    -7     -44.013252     -43.449104      21.379320     -1.5727
    -7     -39.992035     -47.795383      23.892416     -2.1620
    -7     -45.249260     -45.117210      19.792122     -1.2137
    -7     -36.734280     -47.615639      20.178961     -3.1299
    -7     -39.560509     -45.500519      24.774988     -2.3299
    -7     -40.628349     -42.240700      20.141825     -2.9348
    -7     -34.656265     -45.764317      25.189323     -0.9288
    -7     -33.330059     -41.916451      18.084103     -1.7180
    -7     -33.938694     -47.390438      14.999245     -1.7336
    -7     -37.080929     -47.487083      15.486172     -2.1242
    -7     -39.824387     -48.475330      19.114061     -2.7210
    -8     -39.402832     -45.136608      18.302704      7.2229
    -8     -31.272549     -45.001663      16.749001      2.5018
    -8     -40.941391     -45.484093      20.266005      6.6912
    -8     -37.148388     -45.042683      18.164572      5.7800
    -8     -37.782398     -44.651379      16.805513      5.7417
    -8     -37.744976     -44.823524      22.653809      2.0873
    -8     -36.320599     -43.818638      23.783855      2.4662
    -8     -35.554180     -44.562687      16.688101      7.0657

$$$$
