pyflare_stream_747400_1:1
  xed2sdf           3D
 
 33 35  0  0  1  0  0  0  0  0999 V2000
  -41.1994  -46.8662   20.8066 C   0  0  0  0  0  0  0  0  0  0  0  0
  -39.9817  -45.9312   20.9618 C   0  0  0  0  0  0  0  0  0  0  0  0
  -39.3807  -45.5225   19.6049 C   0  0  0  0  0  0  0  0  0  0  0  0
  -38.0395  -45.7235   19.3546 C   0  0  0  0  0  0  0  0  0  0  0  0
  -37.4659  -45.3626   18.1483 C   0  0  0  0  0  0  0  0  0  0  0  0
  -36.1056  -45.5818   17.9218 N   0  0  0  0  0  0  0  0  0  0  0  0
  -38.2495  -44.7849   17.1680 C   0  0  0  0  0  0  0  0  0  0  0  0
  -39.5855  -44.5746   17.4011 C   0  0  0  0  0  0  0  0  0  0  0  0
  -40.1456  -44.9392   18.6070 C   0  0  0  0  0  0  0  0  0  0  0  0
  -41.4524  -44.7160   18.7971 F   0  0  0  0  0  0  0  0  0  0  0  0
  -40.4509  -44.6920   21.7764 C   0  0  0  0  0  0  0  0  0  0  0  0
  -39.2801  -44.1408   22.4573 N   0  0  0  0  0  0  0  0  0  0  0  0
  -39.1008  -42.9018   22.8512 N   0  0  0  0  0  0  0  0  0  0  0  0
  -37.9116  -42.7418   23.4963 N   0  0  0  0  0  0  0  0  0  0  0  0
  -37.3062  -43.8992   23.5326 C   0  0  0  0  0  0  0  0  0  0  0  0
  -38.1811  -44.7849   22.8704 C   0  0  0  0  0  0  0  0  0  0  0  0
  -38.1068  -46.2310   22.5692 C   0  0  0  0  0  0  0  0  0  0  0  0
  -37.1589  -46.9793   23.1568 N   0  0  0  0  0  0  0  0  0  0  0  0
  -39.0148  -46.7540   21.7175 N   0  3  0  0  0  0  0  0  0  0  0  0
  -42.1692  -46.2633   20.4401 H   0  0  0  0  0  0  0  0  0  0  0  0
  -40.9434  -47.7389   20.0233 H   0  0  0  0  0  0  0  0  0  0  0  0
  -41.4378  -47.3602   21.8739 H   0  0  0  0  0  0  0  0  0  0  0  0
  -37.4685  -46.1412   20.0614 H   0  0  0  0  0  0  0  0  0  0  0  0
  -35.5934  -45.7610   18.6156 H   0  0  0  0  0  0  0  0  0  0  0  0
  -35.7305  -45.1817   17.2325 H   0  0  0  0  0  0  0  0  0  0  0  0
  -37.8450  -44.5206   16.2925 H   0  0  0  0  0  0  0  0  0  0  0  0
  -40.1549  -44.1552   16.6941 H   0  0  0  0  0  0  0  0  0  0  0  0
  -41.2363  -45.0272   22.6202 H   0  0  0  0  0  0  0  0  0  0  0  0
  -40.9545  -43.8582   21.0762 H   0  0  0  0  0  0  0  0  0  0  0  0
  -36.4176  -44.1102   23.9398 H   0  0  0  0  0  0  0  0  0  0  0  0
  -36.5018  -46.5600   23.7846 H   0  0  0  0  0  0  0  0  0  0  0  0
  -37.1067  -47.9601   22.9690 H   0  0  0  0  0  0  0  0  0  0  0  0
  -39.0009  -47.7418   21.5577 H   0  0  0  0  0  0  0  0  0  0  0  0
  2  1  1  0
  2  3  1  0
  2 11  1  0
  3  4  2  0
  4  5  1  0
  5  6  1  0
  5  7  2  0
  7  8  1  0
  8  9  2  0
  9  3  1  0
  9 10  1  0
 11 12  1  0
 12 13  1  0
 13 14  2  0
 14 15  1  0
 15 16  2  0
 16 12  1  0
 16 17  1  0
 17 18  1  0
 17 19  2  0
 19  2  1  0
  1 20  1  0
  1 21  1  0
  1 22  1  0
  4 23  1  0
  6 24  1  0
  6 25  1  0
  7 26  1  0
  8 27  1  0
 11 28  1  0
 11 29  1  0
 15 30  1  0
 18 31  1  0
 18 32  1  0
 19 33  1  0
M  CHG  1  19   1
M  END
>  <Alignment>
1

>  <Alns>
1

>  <Conformer>
1

>  <Confs>
1

>  <Excl Vol Pen>
0

>  <FScore>
-107.607

>  <FScore+P>
-105.75

>  <FSim>
0.758

>  <Field Penalty>
0

>  <Filename>
intermediate_bace_combination_02_biphenyl~74_amide_series.sdf

>  <Ref>
lig_74

>  <SScore>
158.53

>  <SScore+P>
152.959

>  <SSim>
0.776

>  <Sim>
0.767

>  <_cresset_fieldpoints2>
 2
    -5     -36.327950     -47.456791      17.088501     -4.3407
    -5     -38.817844     -41.182251      23.303051    -24.5795
    -6     -34.905014     -45.634781      24.293791      9.9651
    -6     -35.452408     -48.295616      23.982792     10.7995
    -6     -35.169910     -44.382793      15.585527      8.1075
    -6     -35.280857     -46.545864      20.333513     10.6284
    -6     -37.884563     -49.275539      21.815937     15.4993
    -7     -39.839947     -48.166328      17.645462     -2.3780
    -7     -43.638439     -44.329788      21.294073     -1.6997
    -7     -35.367317     -46.072701      21.315601     -2.6234
    -7     -40.323322     -47.158451      24.185129     -2.4395
    -7     -38.772907     -48.874737      19.203487     -2.2082
    -7     -36.696617     -48.380234      20.534903     -2.2069
    -7     -39.289783     -43.277657      14.298151     -0.9976
    -7     -38.489902     -42.443573      20.423958     -3.3759
    -7     -40.565079     -43.162193      24.683102     -1.7765
    -8     -38.850697     -45.144207      18.390240      7.0860
    -8     -40.503262     -45.435936      19.869780      5.9497
    -8     -37.321014     -45.046989      23.204987      3.2815

$$$$
