pyflare_stream_748359_1:1
  xed2sdf           3D
 
 43 45  0  0  1  0  0  0  0  0999 V2000
  -41.2336  -46.4102   20.9574 C   0  0  0  0  0  0  0  0  0  0  0  0
  -39.8116  -45.8183   20.9340 C   0  0  0  0  0  0  0  0  0  0  0  0
  -39.2494  -45.5270   19.5411 C   0  0  0  0  0  0  0  0  0  0  0  0
  -40.0628  -45.1050   18.5087 C   0  0  0  0  0  0  0  0  0  0  0  0
  -39.5372  -44.8295   17.2666 C   0  0  0  0  0  0  0  0  0  0  0  0
  -38.1895  -44.9669   17.0408 C   0  0  0  0  0  0  0  0  0  0  0  0
  -37.3515  -45.3809   18.0620 C   0  0  0  0  0  0  0  0  0  0  0  0
  -35.9689  -45.5339   17.8664 N   0  0  0  0  0  0  0  0  0  0  0  0
  -35.2052  -45.0532   16.8567 C   0  0  0  0  0  0  0  0  0  0  0  0
  -35.6236  -44.3286   15.9570 O   0  0  0  0  0  0  0  0  0  0  0  0
  -33.7690  -45.3947   16.8174 C   0  0  0  0  0  0  0  0  0  0  0  0
  -32.8441  -44.9614   15.9400 C   0  0  0  0  0  0  0  0  0  0  0  0
  -31.6579  -45.4440   16.1698 O   0  0  0  0  0  0  0  0  0  0  0  0
  -31.7880  -46.2472   17.2574 C   0  0  0  0  0  0  0  0  0  0  0  0
  -30.7649  -46.9266   17.7935 F   0  0  0  0  0  0  0  0  0  0  0  0
  -33.0400  -46.2551   17.6913 C   0  0  0  0  0  0  0  0  0  0  0  0
  -37.8988  -45.6574   19.3022 C   0  0  0  0  0  0  0  0  0  0  0  0
  -39.8688  -44.4932   21.6533 C   0  0  0  0  0  0  0  0  0  0  0  0
  -39.1574  -44.1550   22.7080 C   0  0  0  0  0  0  0  0  0  0  0  0
  -39.2558  -42.8037   23.3726 C   0  0  0  0  0  0  0  0  0  0  0  0
  -38.0131  -42.1825   23.3281 F   0  0  0  0  0  0  0  0  0  0  0  0
  -38.1920  -45.1345   23.3249 C   0  0  0  0  0  0  0  0  0  0  0  0
  -38.2292  -46.5122   22.6974 C   0  0  0  0  0  0  0  0  0  0  0  0
  -37.4542  -47.4166   23.3014 N   0  0  0  0  0  0  0  0  0  0  0  0
  -38.9834  -46.8041   21.6286 N   0  3  0  0  0  0  0  0  0  0  0  0
  -42.0240  -45.6083   20.5434 H   0  0  0  0  0  0  0  0  0  0  0  0
  -41.5227  -46.6967   22.0863 H   0  0  0  0  0  0  0  0  0  0  0  0
  -41.2629  -47.3978   20.2764 H   0  0  0  0  0  0  0  0  0  0  0  0
  -41.0444  -44.9970   18.6617 H   0  0  0  0  0  0  0  0  0  0  0  0
  -40.1382  -44.5275   16.5267 H   0  0  0  0  0  0  0  0  0  0  0  0
  -37.8173  -44.7674   16.1355 H   0  0  0  0  0  0  0  0  0  0  0  0
  -35.5459  -45.9924   18.4884 H   0  0  0  0  0  0  0  0  0  0  0  0
  -33.0478  -44.3329   15.1894 H   0  0  0  0  0  0  0  0  0  0  0  0
  -33.4012  -46.7631   18.4732 H   0  0  0  0  0  0  0  0  0  0  0  0
  -37.2989  -45.9579   20.0437 H   0  0  0  0  0  0  0  0  0  0  0  0
  -40.4979  -43.8188   21.2919 H   0  0  0  0  0  0  0  0  0  0  0  0
  -40.0608  -42.1064   22.8196 H   0  0  0  0  0  0  0  0  0  0  0  0
  -39.5852  -42.9504   24.5172 H   0  0  0  0  0  0  0  0  0  0  0  0
  -37.0805  -44.6895   23.2433 H   0  0  0  0  0  0  0  0  0  0  0  0
  -38.4738  -45.2583   24.4845 H   0  0  0  0  0  0  0  0  0  0  0  0
  -36.9076  -47.1601   24.0994 H   0  0  0  0  0  0  0  0  0  0  0  0
  -37.4171  -48.3549   22.9574 H   0  0  0  0  0  0  0  0  0  0  0  0
  -38.9701  -47.7404   21.2768 H   0  0  0  0  0  0  0  0  0  0  0  0
  2  1  1  0
  2  3  1  0
  2 18  1  0
  3  4  2  0
  4  5  1  0
  5  6  2  0
  6  7  1  0
  7  8  1  0
  7 17  2  0
  8  9  1  0
  9 10  2  0
  9 11  1  0
 11 12  2  0
 12 13  1  0
 13 14  1  0
 14 15  1  0
 14 16  2  0
 16 11  1  0
 17  3  1  0
 18 19  2  0
 19 20  1  0
 19 22  1  0
 20 21  1  0
 22 23  1  0
 23 24  1  0
 23 25  2  0
 25  2  1  0
  1 26  1  0
  1 27  1  0
  1 28  1  0
  4 29  1  0
  5 30  1  0
  6 31  1  0
  8 32  1  0
 12 33  1  0
 16 34  1  0
 17 35  1  0
 18 36  1  0
 20 37  1  0
 20 38  1  0
 22 39  1  0
 22 40  1  0
 24 41  1  0
 24 42  1  0
 25 43  1  0
M  CHG  1  25   1
M  END
>  <Alignment>
1

>  <Alns>
1

>  <Conformer>
1

>  <Confs>
1

>  <Excl Vol Pen>
0

>  <FScore>
-108.117

>  <FScore+P>
-104.291

>  <FSim>
0.752

>  <Field Penalty>
0

>  <Filename>
intermediate_bace_combination_06_biphenyl~45_amide_series.sdf

>  <Ref>
lig_45

>  <SScore>
207.263

>  <SScore+P>
195.784

>  <SSim>
0.903

>  <Sim>
0.828

>  <_cresset_fieldpoints2>
 2
    -5     -39.992920     -47.317085      23.941822     -4.1673
    -5     -39.249626     -47.811199      17.013575     -2.8378
    -5     -37.809906     -42.996403      20.511795     -6.6539
    -5     -36.487297     -42.828148      15.139846    -13.0295
    -5     -29.745058     -45.247604      15.267361     -2.1339
    -6     -42.317722     -43.405113      20.047361      3.9215
    -6     -42.134884     -42.622845      22.177425      4.1914
    -6     -38.060284     -49.425995      21.441849     10.3602
    -6     -34.882919     -47.129589      19.878460     12.1465
    -6     -32.058464     -43.363220      13.634908      2.1863
    -6     -39.524078     -44.253471      26.298786      3.1599
    -6     -35.640034     -47.535305      25.484369      6.5864
    -6     -36.024326     -49.091557      24.237228      7.3842
    -7     -42.600494     -47.057854      17.985216     -1.6032
    -7     -42.345558     -43.111908      19.798754     -1.9624
    -7     -38.453239     -42.364613      20.030579     -3.1979
    -7     -39.441807     -48.660675      18.751276     -2.2945
    -7     -34.873734     -43.961216      19.854486     -2.4612
    -7     -35.896183     -48.094353      16.874090     -2.3393
    -7     -36.358101     -43.511192      20.961382     -2.6997
    -7     -30.258026     -46.447201      14.298260     -1.2658
    -7     -29.609972     -43.933441      16.226185     -1.2659
    -7     -32.209843     -43.171959      18.929384     -1.3928
    -7     -35.512821     -46.433907      21.509739     -2.6462
    -7     -33.353065     -48.280758      14.915556     -1.3881
    -7     -37.499271     -43.620842      26.250357     -1.4046
    -7     -40.452805     -40.260147      24.998611     -0.8604
    -7     -41.322929     -45.381905      24.294334     -2.4497
    -7     -40.191402     -48.395943      23.565725     -2.1702
    -8     -40.275307     -45.367554      20.147350      5.7269
    -8     -38.747669     -45.240284      18.299280      7.0745
    -8     -39.002598     -44.940884      22.402225      5.4202
    -8     -33.173470     -45.784889      17.126091      4.8947
    -8     -32.124607     -46.669281      17.923195      4.2917
    -8     -38.631229     -43.755009      23.200632      5.5776

$$$$
