pyflare_stream_840255_1:1
  xed2sdf           3D
 
 39 41  0  0  1  0  0  0  0  0999 V2000
  -40.9530  -47.0862   20.9980 C   0  0  0  0  0  0  0  0  0  0  0  0
  -39.7387  -46.1347   20.9237 C   0  0  0  0  0  0  0  0  0  0  0  0
  -39.3811  -45.6960   19.4914 C   0  0  0  0  0  0  0  0  0  0  0  0
  -38.0555  -45.6201   19.1186 C   0  0  0  0  0  0  0  0  0  0  0  0
  -37.6575  -45.2103   17.8535 C   0  0  0  0  0  0  0  0  0  0  0  0
  -36.2459  -45.1275   17.4914 C   0  0  0  0  0  0  0  0  0  0  0  0
  -35.8182  -44.2897   16.4708 C   0  0  0  0  0  0  0  0  0  0  0  0
  -34.4899  -44.2047   16.1298 C   0  0  0  0  0  0  0  0  0  0  0  0
  -33.5563  -44.9593   16.8013 C   0  0  0  0  0  0  0  0  0  0  0  0
  -33.9587  -45.7974   17.8154 C   0  0  0  0  0  0  0  0  0  0  0  0
  -35.2874  -45.8791   18.1565 C   0  0  0  0  0  0  0  0  0  0  0  0
  -38.6467  -44.8746   16.9427 C   0  0  0  0  0  0  0  0  0  0  0  0
  -39.9716  -44.9416   17.2894 C   0  0  0  0  0  0  0  0  0  0  0  0
  -40.3389  -45.3441   18.5545 C   0  0  0  0  0  0  0  0  0  0  0  0
  -41.6419  -45.3817   18.8588 F   0  0  0  0  0  0  0  0  0  0  0  0
  -40.0903  -44.9371   21.8397 C   0  0  0  0  0  0  0  0  0  0  0  0
  -38.8896  -44.0081   22.0774 C   0  0  0  0  0  0  0  0  0  0  0  0
  -37.6460  -44.9440   22.9908 S   0  0  0  0  0  0  0  0  0  0  0  0
  -37.7333  -46.5812   22.3590 C   0  0  0  0  0  0  0  0  0  0  0  0
  -36.7724  -47.3684   22.8521 N   0  0  0  0  0  0  0  0  0  0  0  0
  -38.6742  -46.9817   21.4833 N   0  3  0  0  0  0  0  0  0  0  0  0
  -41.9885  -46.4914   20.8831 H   0  0  0  0  0  0  0  0  0  0  0  0
  -40.9497  -47.6235   22.0711 H   0  0  0  0  0  0  0  0  0  0  0  0
  -40.8674  -47.9229   20.1419 H   0  0  0  0  0  0  0  0  0  0  0  0
  -37.3582  -45.8618   19.7917 H   0  0  0  0  0  0  0  0  0  0  0  0
  -36.4825  -43.7314   15.9763 H   0  0  0  0  0  0  0  0  0  0  0  0
  -34.2019  -43.5930   15.3930 H   0  0  0  0  0  0  0  0  0  0  0  0
  -32.5894  -44.8989   16.5534 H   0  0  0  0  0  0  0  0  0  0  0  0
  -33.2831  -46.3483   18.3053 H   0  0  0  0  0  0  0  0  0  0  0  0
  -35.5632  -46.4952   18.8927 H   0  0  0  0  0  0  0  0  0  0  0  0
  -38.3977  -44.5827   16.0207 H   0  0  0  0  0  0  0  0  0  0  0  0
  -40.6740  -44.6947   16.6219 H   0  0  0  0  0  0  0  0  0  0  0  0
  -40.9724  -44.3054   21.3273 H   0  0  0  0  0  0  0  0  0  0  0  0
  -40.4685  -45.3425   22.9043 H   0  0  0  0  0  0  0  0  0  0  0  0
  -39.2283  -43.0542   22.7219 H   0  0  0  0  0  0  0  0  0  0  0  0
  -38.4361  -43.6429   21.0283 H   0  0  0  0  0  0  0  0  0  0  0  0
  -36.1082  -47.0016   23.5039 H   0  0  0  0  0  0  0  0  0  0  0  0
  -36.7161  -48.3264   22.5709 H   0  0  0  0  0  0  0  0  0  0  0  0
  -38.6316  -47.9325   21.1738 H   0  0  0  0  0  0  0  0  0  0  0  0
  2  1  1  0
  2  3  1  0
  2 16  1  0
  3  4  2  0
  4  5  1  0
  5  6  1  0
  5 12  2  0
  6  7  2  0
  7  8  1  0
  8  9  2  0
  9 10  1  0
 10 11  2  0
 11  6  1  0
 12 13  1  0
 13 14  2  0
 14  3  1  0
 14 15  1  0
 16 17  1  0
 17 18  1  0
 18 19  1  0
 19 20  1  0
 19 21  2  0
 21  2  1  0
  1 22  1  0
  1 23  1  0
  1 24  1  0
  4 25  1  0
  7 26  1  0
  8 27  1  0
  9 28  1  0
 10 29  1  0
 11 30  1  0
 12 31  1  0
 13 32  1  0
 16 33  1  0
 16 34  1  0
 17 35  1  0
 17 36  1  0
 20 37  1  0
 20 38  1  0
 21 39  1  0
M  CHG  1  21   1
M  END
>  <Alignment>
1

>  <Alns>
1

>  <Conformer>
1

>  <Confs>
1

>  <Excl Vol Pen>
0

>  <FScore>
-90.349

>  <FScore+P>
-86.991

>  <FSim>
0.801

>  <Field Penalty>
0

>  <Filename>
intermediate_bace_combination_02_biphenyl~32_spirocycles.sdf

>  <Ref>
lig_02

>  <SScore>
187.957

>  <SScore+P>
177.881

>  <SSim>
0.917

>  <Sim>
0.859

>  <_cresset_fieldpoints2>
 2
    -5     -44.108986     -44.865814      17.611015     -1.2157
    -5     -39.104580     -47.399296      24.119999     -4.3457
    -5     -35.374039     -47.180138      15.331588     -3.7590
    -5     -34.856995     -42.988838      19.151266     -4.1822
    -6     -42.929756     -45.300167      22.881187      2.1614
    -6     -37.944859     -43.221317      14.514530      4.4960
    -6     -37.594353     -49.535282      21.315804     10.8793
    -6     -35.093540     -48.915401      23.542027      7.5138
    -6     -40.618614     -41.974522      20.746319      2.3122
    -7     -39.637821     -47.715366      24.199776     -2.4405
    -7     -43.458759     -44.585316      21.666185     -1.6450
    -7     -36.480415     -48.328800      20.057627     -3.0382
    -7     -35.970840     -43.230949      20.203728     -3.1540
    -7     -36.793869     -47.405251      15.245539     -2.1038
    -7     -31.621943     -43.294720      14.558311     -0.9695
    -7     -30.595600     -46.269173      17.835394     -0.9700
    -7     -34.895454     -46.505413      21.249432     -2.7973
    -7     -38.815338     -48.759727      18.591101     -2.6122
    -7     -39.042995     -42.200378      19.105370     -2.9159
    -7     -40.552280     -43.771503      25.010796     -1.5099
    -8     -40.476921     -45.838528      19.891321      6.0063
    -8     -39.008316     -45.277054      18.215925      7.2537
    -8     -39.497391     -45.000713      20.850199      5.4829
    -8     -38.764355     -44.984592      22.231424      5.8018
    -8     -34.904465     -45.042515      17.146402      7.1895
    -8     -37.142159     -44.771603      17.024597      5.7787
    -8     -36.768940     -45.557072      18.327892      5.7743

$$$$
