pyflare_stream_747689_1:1
  xed2sdf           3D
 
 45 48  0  0  1  0  0  0  0  0999 V2000
  -41.2337  -46.8358   20.7320 C   0  0  0  0  0  0  0  0  0  0  0  0
  -39.9957  -45.9400   20.9415 C   0  0  0  0  0  0  0  0  0  0  0  0
  -39.3759  -45.5302   19.5970 C   0  0  0  0  0  0  0  0  0  0  0  0
  -40.1466  -44.9441   18.6116 C   0  0  0  0  0  0  0  0  0  0  0  0
  -39.5917  -44.5676   17.4092 C   0  0  0  0  0  0  0  0  0  0  0  0
  -38.2540  -44.7687   17.1729 C   0  0  0  0  0  0  0  0  0  0  0  0
  -37.4574  -45.3503   18.1442 C   0  0  0  0  0  0  0  0  0  0  0  0
  -36.0852  -45.5711   17.9430 N   0  0  0  0  0  0  0  0  0  0  0  0
  -35.2893  -45.1195   16.9495 C   0  0  0  0  0  0  0  0  0  0  0  0
  -35.6603  -44.4086   16.0209 O   0  0  0  0  0  0  0  0  0  0  0  0
  -33.8565  -45.5089   17.0100 C   0  0  0  0  0  0  0  0  0  0  0  0
  -32.9548  -44.9761   16.1001 C   0  0  0  0  0  0  0  0  0  0  0  0
  -31.6402  -45.3281   16.1723 C   0  0  0  0  0  0  0  0  0  0  0  0
  -31.2474  -46.2137   17.1599 C   0  0  0  0  0  0  0  0  0  0  0  0
  -29.8698  -46.6136   17.2854 C   0  0  0  0  0  0  0  0  0  0  0  0
  -28.7832  -46.9289   17.3857 N   0  0  0  0  0  0  0  0  0  0  0  0
  -32.2043  -46.7100   18.0327 C   0  0  0  0  0  0  0  0  0  0  0  0
  -33.5044  -46.3802   17.9853 N   0  0  0  0  0  0  0  0  0  0  0  0
  -38.0355  -45.7243   19.3447 C   0  0  0  0  0  0  0  0  0  0  0  0
  -40.4599  -44.6922   21.7449 C   0  0  0  0  0  0  0  0  0  0  0  0
  -39.2845  -44.1477   22.4246 N   0  0  0  0  0  0  0  0  0  0  0  0
  -39.0934  -42.9073   22.8094 N   0  0  0  0  0  0  0  0  0  0  0  0
  -37.9026  -42.7536   23.4532 N   0  0  0  0  0  0  0  0  0  0  0  0
  -37.3080  -43.9162   23.4979 C   0  0  0  0  0  0  0  0  0  0  0  0
  -38.1910  -44.7989   22.8426 C   0  0  0  0  0  0  0  0  0  0  0  0
  -38.1292  -46.2484   22.5529 C   0  0  0  0  0  0  0  0  0  0  0  0
  -37.1854  -46.9999   23.1428 N   0  0  0  0  0  0  0  0  0  0  0  0
  -39.0441  -46.7701   21.7079 N   0  3  0  0  0  0  0  0  0  0  0  0
  -42.1107  -46.1982   20.2186 H   0  0  0  0  0  0  0  0  0  0  0  0
  -40.9465  -47.7601   20.0223 H   0  0  0  0  0  0  0  0  0  0  0  0
  -41.6135  -47.2568   21.7897 H   0  0  0  0  0  0  0  0  0  0  0  0
  -41.1210  -44.7895   18.7732 H   0  0  0  0  0  0  0  0  0  0  0  0
  -40.1642  -44.1457   16.7062 H   0  0  0  0  0  0  0  0  0  0  0  0
  -37.8598  -44.4936   16.2974 H   0  0  0  0  0  0  0  0  0  0  0  0
  -35.6859  -46.0596   18.5591 H   0  0  0  0  0  0  0  0  0  0  0  0
  -33.2668  -44.3360   15.3980 H   0  0  0  0  0  0  0  0  0  0  0  0
  -30.9743  -44.9534   15.5272 H   0  0  0  0  0  0  0  0  0  0  0  0
  -31.9075  -47.3507   18.7408 H   0  0  0  0  0  0  0  0  0  0  0  0
  -37.4637  -46.1453   20.0488 H   0  0  0  0  0  0  0  0  0  0  0  0
  -41.2530  -45.0089   22.5884 H   0  0  0  0  0  0  0  0  0  0  0  0
  -40.9551  -43.8687   21.0256 H   0  0  0  0  0  0  0  0  0  0  0  0
  -36.4210  -44.1321   23.9062 H   0  0  0  0  0  0  0  0  0  0  0  0
  -36.5234  -46.5814   23.7659 H   0  0  0  0  0  0  0  0  0  0  0  0
  -37.1410  -47.9822   22.9611 H   0  0  0  0  0  0  0  0  0  0  0  0
  -39.0437  -47.7598   21.5592 H   0  0  0  0  0  0  0  0  0  0  0  0
  2  1  1  0
  2  3  1  0
  2 20  1  0
  3  4  2  0
  4  5  1  0
  5  6  2  0
  6  7  1  0
  7  8  1  0
  7 19  2  0
  8  9  1  0
  9 10  2  0
  9 11  1  0
 11 12  2  0
 12 13  1  0
 13 14  2  0
 14 15  1  0
 14 17  1  0
 15 16  3  0
 17 18  2  0
 18 11  1  0
 19  3  1  0
 20 21  1  0
 21 22  1  0
 22 23  2  0
 23 24  1  0
 24 25  2  0
 25 21  1  0
 25 26  1  0
 26 27  1  0
 26 28  2  0
 28  2  1  0
  1 29  1  0
  1 30  1  0
  1 31  1  0
  4 32  1  0
  5 33  1  0
  6 34  1  0
  8 35  1  0
 12 36  1  0
 13 37  1  0
 17 38  1  0
 19 39  1  0
 20 40  1  0
 20 41  1  0
 24 42  1  0
 27 43  1  0
 27 44  1  0
 28 45  1  0
M  CHG  1  28   1
M  END
>  <Alignment>
1

>  <Alns>
1

>  <Conformer>
1

>  <Confs>
1

>  <Excl Vol Pen>
0

>  <FScore>
-155.266

>  <FScore+P>
-153.489

>  <FSim>
0.952

>  <Field Penalty>
0

>  <Filename>
intermediate_bace_combination_03_biphenyl~74_amide_series.sdf

>  <Ref>
lig_74

>  <SScore>
228.37

>  <SScore+P>
223.038

>  <SSim>
0.962

>  <Sim>
0.957

>  <_cresset_fieldpoints2>
 2
    -5     -39.390461     -47.502708      16.661589     -2.3077
    -5     -38.777954     -41.182789      23.227875    -24.5086
    -5     -36.233704     -43.108925      14.737478    -10.6462
    -5     -26.990742     -47.573067      17.578756    -12.8982
    -6     -42.893177     -44.171726      19.859207      5.2660
    -6     -35.467365     -48.319862      23.938663     10.9319
    -6     -31.298071     -48.297756      20.309250      4.9049
    -6     -31.054869     -43.654270      13.959214      4.9883
    -6     -31.487530     -48.768673      15.676018      3.1462
    -6     -35.712006     -47.119633      20.300299     11.2055
    -6     -37.775913     -49.192951      21.620890     15.7815
    -6     -34.916748     -45.672859      24.274199     10.0287
    -7     -43.192486     -43.922520      19.766390     -1.8523
    -7     -38.730591     -48.882381      19.229860     -2.1924
    -7     -38.417805     -42.453072      20.416962     -3.2812
    -7     -39.695866     -48.231651      17.689629     -2.2586
    -7     -35.344360     -46.085827      21.228916     -2.9134
    -7     -31.590973     -43.172375      13.561252     -0.9828
    -7     -35.817265     -48.205162      17.196714     -2.1780
    -7     -33.196106     -48.353092      15.162062     -1.6212
    -7     -29.907352     -47.541512      20.429052     -1.1032
    -7     -30.149048     -49.156288      19.323818     -1.1026
    -7     -32.216045     -43.469334      19.192181     -1.6473
    -7     -40.557999     -43.146282      24.647249     -1.7702
    -7     -40.392044     -47.218704      24.090126     -2.4603
    -8     -38.843128     -45.145710      18.386709      7.0594
    -8     -40.461384     -45.575428      20.013777      5.6509
    -8     -32.246616     -45.681118      16.776440      5.5380
    -8     -37.331612     -45.063469      23.177160      3.2827

$$$$
