pyflare_stream_748283_1:1
  xed2sdf           3D
 
 33 34  0  0  1  0  0  0  0  0999 V2000
  -41.3455  -46.7313   21.0930 C   0  0  0  0  0  0  0  0  0  0  0  0
  -39.9743  -46.0398   20.9506 C   0  0  0  0  0  0  0  0  0  0  0  0
  -39.5837  -45.7148   19.5024 C   0  0  0  0  0  0  0  0  0  0  0  0
  -40.5396  -45.4901   18.5317 C   0  0  0  0  0  0  0  0  0  0  0  0
  -40.1771  -45.1859   17.2396 C   0  0  0  0  0  0  0  0  0  0  0  0
  -38.8496  -45.0996   16.8988 C   0  0  0  0  0  0  0  0  0  0  0  0
  -37.8711  -45.3160   17.8483 C   0  0  0  0  0  0  0  0  0  0  0  0
  -36.5596  -45.2194   17.4728 O   0  0  0  0  0  0  0  0  0  0  0  0
  -35.5408  -45.4322   18.4698 C   0  0  0  0  0  0  0  0  0  0  0  0
  -34.3053  -45.2584   17.8582 F   0  0  0  0  0  0  0  0  0  0  0  0
  -38.2547  -45.6209   19.1446 C   0  0  0  0  0  0  0  0  0  0  0  0
  -40.0162  -44.7651   21.8182 C   0  0  0  0  0  0  0  0  0  0  0  0
  -38.6790  -44.2832   22.0153 O   0  0  0  0  0  0  0  0  0  0  0  0
  -37.9115  -45.1811   22.8327 C   0  0  0  0  0  0  0  0  0  0  0  0
  -38.0382  -46.6138   22.3585 C   0  0  0  0  0  0  0  0  0  0  0  0
  -37.1293  -47.4661   22.8393 N   0  0  0  0  0  0  0  0  0  0  0  0
  -39.0112  -46.9852   21.5149 N   0  3  0  0  0  0  0  0  0  0  0  0
  -42.2246  -45.9601   20.8247 H   0  0  0  0  0  0  0  0  0  0  0  0
  -41.4876  -47.1105   22.2225 H   0  0  0  0  0  0  0  0  0  0  0  0
  -41.3937  -47.6741   20.3524 H   0  0  0  0  0  0  0  0  0  0  0  0
  -41.5087  -45.5483   18.7685 H   0  0  0  0  0  0  0  0  0  0  0  0
  -40.8816  -45.0267   16.5480 H   0  0  0  0  0  0  0  0  0  0  0  0
  -38.5917  -44.8778   15.9582 H   0  0  0  0  0  0  0  0  0  0  0  0
  -35.6610  -44.6354   19.3593 H   0  0  0  0  0  0  0  0  0  0  0  0
  -35.6226  -46.5471   18.9066 H   0  0  0  0  0  0  0  0  0  0  0  0
  -37.5534  -45.7774   19.8396 H   0  0  0  0  0  0  0  0  0  0  0  0
  -40.6679  -43.9256   21.2606 H   0  0  0  0  0  0  0  0  0  0  0  0
  -40.5155  -44.9959   22.8856 H   0  0  0  0  0  0  0  0  0  0  0  0
  -36.7602  -44.8430   22.8083 H   0  0  0  0  0  0  0  0  0  0  0  0
  -38.3159  -45.1166   23.9605 H   0  0  0  0  0  0  0  0  0  0  0  0
  -36.4217  -47.1480   23.4714 H   0  0  0  0  0  0  0  0  0  0  0  0
  -37.1538  -48.4286   22.5689 H   0  0  0  0  0  0  0  0  0  0  0  0
  -39.0658  -47.9454   21.2389 H   0  0  0  0  0  0  0  0  0  0  0  0
  2  1  1  0
  2  3  1  0
  2 12  1  0
  3  4  2  0
  4  5  1  0
  5  6  2  0
  6  7  1  0
  7  8  1  0
  7 11  2  0
  8  9  1  0
  9 10  1  0
 11  3  1  0
 12 13  1  0
 13 14  1  0
 14 15  1  0
 15 16  1  0
 15 17  2  0
 17  2  1  0
  1 18  1  0
  1 19  1  0
  1 20  1  0
  4 21  1  0
  5 22  1  0
  6 23  1  0
  9 24  1  0
  9 25  1  0
 11 26  1  0
 12 27  1  0
 12 28  1  0
 14 29  1  0
 14 30  1  0
 16 31  1  0
 16 32  1  0
 17 33  1  0
M  CHG  1  17   1
M  END
>  <Alignment>
1

>  <Alns>
1

>  <Conformer>
1

>  <Confs>
11

>  <Excl Vol Pen>
0

>  <FScore>
-92.452

>  <FScore+P>
-91.647

>  <FSim>
0.824

>  <Field Penalty>
0

>  <Filename>
intermediate_bace_combination_05_biphenyl~69_amide_series.sdf

>  <Ref>
lig_05

>  <SScore>
145.513

>  <SScore+P>
143.098

>  <SSim>
0.8

>  <Sim>
0.812

>  <_cresset_fieldpoints2>
 2
    -5     -35.661499     -44.541393      15.563630     -5.9875
    -5     -38.108498     -42.929756      20.787466    -10.6579
    -5     -39.195484     -48.113327      17.036098     -2.2585
    -5     -39.401573     -47.501247      24.055443     -2.2464
    -6     -38.180901     -49.633221      21.422398     10.7423
    -6     -42.896210     -44.479961      22.572208      3.3531
    -6     -43.569237     -45.719845      18.941072      3.8130
    -6     -35.152275     -46.160198      21.198288      5.6827
    -6     -35.493469     -49.019966      23.588654      7.7706
    -6     -35.160717     -46.045685      24.398600      7.1721
    -7     -42.823067     -43.605492      19.912258     -1.9135
    -7     -43.140903     -44.266407      22.574343     -1.4260
    -7     -43.278690     -47.309673      18.452770     -1.5654
    -7     -40.185276     -46.238155      14.020174     -0.9677
    -7     -40.339523     -44.405224      13.932867     -0.9766
    -7     -36.905937     -48.387569      20.041725     -2.7612
    -7     -35.123924     -46.445496      21.420938     -2.5072
    -7     -37.409866     -42.882191      20.494585     -2.7625
    -7     -39.430290     -48.847771      18.778843     -2.3814
    -7     -40.020287     -47.381145      24.283508     -2.3164
    -8     -39.245762     -45.407589      18.206715      7.0539
    -8     -40.630589     -45.897446      19.996183      5.5936
    -8     -34.779812     -45.492191      18.815071      3.3486
    -8     -37.639313     -45.695782      23.232515      2.8102

$$$$
