lig_16
     RDKit          3D

 51 54  0  0  0  0  0  0  0  0999 V2000
  -39.2331  -44.9942   16.9142 C   0  0  0  0  0  0  0  0  0  0  0  0
  -36.6629  -44.0057   15.9801 C   0  0  0  0  0  0  0  0  0  0  0  0
  -35.6745  -45.2767   17.7813 C   0  0  0  0  0  0  0  0  0  0  0  0
  -40.4927  -45.1974   17.4728 C   0  0  0  0  0  0  0  0  0  0  0  0
  -35.3988  -43.8111   15.4237 C   0  0  0  0  0  0  0  0  0  0  0  0
  -34.4103  -45.0822   17.2249 C   0  0  0  0  0  0  0  0  0  0  0  0
  -38.2526  -45.0777   19.1181 C   0  0  0  0  0  0  0  0  0  0  0  0
  -36.8008  -44.7385   17.1590 C   0  0  0  0  0  0  0  0  0  0  0  0
  -38.1120  -44.9405   17.7363 C   0  0  0  0  0  0  0  0  0  0  0  0
  -39.5175  -45.2692   19.6995 C   0  0  0  0  0  0  0  0  0  0  0  0
  -40.6341  -45.3506   18.8562 C   0  0  0  0  0  0  0  0  0  0  0  0
  -34.2725  -44.3493   16.0460 C   0  0  0  0  0  0  0  0  0  0  0  0
  -38.9165  -44.2717   21.9586 C   0  0  0  0  0  0  0  0  0  0  0  0
  -37.9817  -46.2800   22.6094 C   0  0  0  0  0  0  0  0  0  0  0  0
  -41.1407  -45.3796   21.6207 C   0  0  0  0  0  0  0  0  0  0  0  0
  -39.6736  -45.3894   21.1922 C   0  0  1  0  0  0  0  0  0  0  0  0
  -42.0574  -46.1044   20.6214 C   0  0  0  0  0  0  0  0  0  0  0  0
  -43.5188  -45.8448   21.0229 C   0  0  0  0  0  0  0  0  0  0  0  0
  -41.8387  -47.6238   20.5761 C   0  0  0  0  0  0  0  0  0  0  0  0
  -37.0441  -44.1736   23.6714 C   0  0  0  0  0  0  0  0  0  0  0  0
  -31.9306  -44.7375   16.1904 C   0  0  0  0  0  0  0  0  0  0  0  0
  -37.9334  -44.9186   22.7880 N   0  0  0  0  0  0  0  0  0  0  0  0
  -38.9719  -46.6074   21.6806 N   0  0  0  0  0  0  0  0  0  0  0  0
  -37.1886  -47.2122   23.2290 N   0  0  0  0  0  4  0  0  0  0  0  0
  -39.1045  -43.0685   21.8767 O   0  0  0  0  0  0  0  0  0  0  0  0
  -41.9143  -45.5637   19.2965 O   0  0  0  0  0  0  0  0  0  0  0  0
  -33.0393  -44.1598   15.5026 O   0  0  0  0  0  0  0  0  0  0  0  0
  -39.1422  -44.8846   15.8363 H   0  0  0  0  0  0  0  0  0  0  0  0
  -37.5314  -43.5799   15.4833 H   0  0  0  0  0  0  0  0  0  0  0  0
  -35.7654  -45.8504   18.7006 H   0  0  0  0  0  0  0  0  0  0  0  0
  -41.3629  -45.2474   16.8232 H   0  0  0  0  0  0  0  0  0  0  0  0
  -35.2978  -43.2395   14.5051 H   0  0  0  0  0  0  0  0  0  0  0  0
  -33.5364  -45.5040   17.7139 H   0  0  0  0  0  0  0  0  0  0  0  0
  -37.3697  -45.0309   19.7533 H   0  0  0  0  0  0  0  0  0  0  0  0
  -41.2514  -45.8039   22.6270 H   0  0  0  0  0  0  0  0  0  0  0  0
  -41.4742  -44.3338   21.6881 H   0  0  0  0  0  0  0  0  0  0  0  0
  -44.1779  -46.3513   20.3251 H   0  0  0  0  0  0  0  0  0  0  0  0
  -43.7131  -44.7774   20.9990 H   0  0  0  0  0  0  0  0  0  0  0  0
  -43.6880  -46.2242   22.0256 H   0  0  0  0  0  0  0  0  0  0  0  0
  -42.5176  -48.0646   19.8521 H   0  0  0  0  0  0  0  0  0  0  0  0
  -42.0313  -48.0454   21.5581 H   0  0  0  0  0  0  0  0  0  0  0  0
  -40.8130  -47.8321   20.2860 H   0  0  0  0  0  0  0  0  0  0  0  0
  -37.5160  -44.0625   24.6589 H   0  0  0  0  0  0  0  0  0  0  0  0
  -36.0938  -44.7172   23.7783 H   0  0  0  0  0  0  0  0  0  0  0  0
  -36.8513  -43.1788   23.2434 H   0  0  0  0  0  0  0  0  0  0  0  0
  -31.0079  -44.5111   15.6507 H   0  0  0  0  0  0  0  0  0  0  0  0
  -32.0680  -45.8195   16.2609 H   0  0  0  0  0  0  0  0  0  0  0  0
  -31.8756  -44.3130   17.1957 H   0  0  0  0  0  0  0  0  0  0  0  0
  -39.1608  -47.5673   21.4038 H   0  0  0  0  0  0  0  0  0  0  0  0
  -36.5050  -46.8926   23.8746 H   0  0  0  0  0  0  0  0  0  0  0  0
  -37.3291  -48.1702   23.0077 H   0  0  0  0  0  0  0  0  0  0  0  0
  1  4  2  0
  1  9  1  0
  2  5  2  0
  2  8  1  0
  3  6  1  0
  3  8  2  0
  4 11  1  0
  5 12  1  0
  6 12  2  0
  7  9  2  0
  7 10  1  0
  8  9  1  0
 10 11  2  0
 10 16  1  0
 11 26  1  0
 12 27  1  0
 13 16  1  0
 13 22  1  0
 13 25  2  0
 14 22  1  0
 14 23  1  0
 14 24  2  0
 15 16  1  0
 15 17  1  0
 16 23  1  1
 17 18  1  0
 17 19  1  0
 17 26  1  0
 20 22  1  0
 21 27  1  0
  1 28  1  0
  2 29  1  0
  3 30  1  0
  4 31  1  0
  5 32  1  0
  6 33  1  0
  7 34  1  0
 15 35  1  0
 15 36  1  0
 18 37  1  0
 18 38  1  0
 18 39  1  0
 19 40  1  0
 19 41  1  0
 19 42  1  0
 20 43  1  0
 20 44  1  0
 20 45  1  0
 21 46  1  0
 21 47  1  0
 21 48  1  0
 23 49  1  0
 24 50  1  0
 24 51  1  0
M  CHG  1  24   1
M  END
