lig_03
     RDKit          3D

 46 48  0  0  0  0  0  0  0  0999 V2000
  -40.2894  -45.1922   17.1437 C   0  0  0  0  0  0  0  0  0  0  0  0
  -34.8755  -43.5891   16.1635 C   0  0  0  0  0  0  0  0  0  0  0  0
  -38.9570  -45.0093   16.7949 C   0  0  0  0  0  0  0  0  0  0  0  0
  -36.1870  -43.8214   16.5751 C   0  0  0  0  0  0  0  0  0  0  0  0
  -40.6231  -45.6070   18.4292 C   0  0  0  0  0  0  0  0  0  0  0  0
  -33.8677  -44.4732   16.5294 C   0  0  0  0  0  0  0  0  0  0  0  0
  -38.2912  -45.6509   19.0219 C   0  0  0  0  0  0  0  0  0  0  0  0
  -35.4859  -45.8276   17.7124 C   0  0  0  0  0  0  0  0  0  0  0  0
  -37.9293  -45.2091   17.7295 C   0  0  0  0  0  0  0  0  0  0  0  0
  -36.5239  -44.9494   17.3479 C   0  0  0  0  0  0  0  0  0  0  0  0
  -39.6354  -45.8804   19.3886 C   0  0  0  0  0  0  0  0  0  0  0  0
  -34.1639  -45.5934   17.3089 C   0  0  0  0  0  0  0  0  0  0  0  0
  -39.1002  -44.3596   22.0710 C   0  0  0  0  0  0  0  0  0  0  0  0
  -38.0437  -46.6125   22.3411 C   0  0  0  0  0  0  0  0  0  0  0  0
  -40.3449  -45.0979   21.6611 C   0  0  0  0  0  0  0  0  0  0  0  0
  -40.0369  -46.3315   20.8006 C   0  0  1  0  0  0  0  0  0  0  0  0
  -41.2885  -47.2376   20.8042 C   0  0  0  0  0  0  0  0  0  0  0  0
  -37.1106  -44.6010   23.5395 C   0  0  0  0  0  0  0  0  0  0  0  0
  -33.3289  -47.5216   18.4188 C   0  0  0  0  0  0  0  0  0  0  0  0
  -38.0880  -45.2300   22.6328 N   0  0  0  0  0  0  0  0  0  0  0  0
  -38.9426  -47.1431   21.4084 N   0  0  0  0  0  0  0  0  0  0  0  0
  -37.1105  -47.4728   22.9155 N   0  0  0  0  0  4  0  0  0  0  0  0
  -38.9970  -43.1406   22.0100 O   0  0  0  0  0  0  0  0  0  0  0  0
  -33.0853  -46.3852   17.6003 O   0  0  0  0  0  0  0  0  0  0  0  0
  -41.0705  -45.0057   16.4133 H   0  0  0  0  0  0  0  0  0  0  0  0
  -34.6443  -42.7210   15.5535 H   0  0  0  0  0  0  0  0  0  0  0  0
  -38.7301  -44.7001   15.7770 H   0  0  0  0  0  0  0  0  0  0  0  0
  -36.9496  -43.1044   16.2770 H   0  0  0  0  0  0  0  0  0  0  0  0
  -41.6775  -45.7047   18.6673 H   0  0  0  0  0  0  0  0  0  0  0  0
  -32.8488  -44.2845   16.2005 H   0  0  0  0  0  0  0  0  0  0  0  0
  -37.5047  -45.7946   19.7601 H   0  0  0  0  0  0  0  0  0  0  0  0
  -35.7323  -46.7091   18.2989 H   0  0  0  0  0  0  0  0  0  0  0  0
  -40.8384  -45.3941   22.5962 H   0  0  0  0  0  0  0  0  0  0  0  0
  -41.0197  -44.4036   21.1470 H   0  0  0  0  0  0  0  0  0  0  0  0
  -41.4478  -47.6654   21.8018 H   0  0  0  0  0  0  0  0  0  0  0  0
  -41.1729  -48.0777   20.1104 H   0  0  0  0  0  0  0  0  0  0  0  0
  -42.2018  -46.6939   20.5409 H   0  0  0  0  0  0  0  0  0  0  0  0
  -36.6816  -45.3260   24.2321 H   0  0  0  0  0  0  0  0  0  0  0  0
  -36.3260  -44.1288   22.9446 H   0  0  0  0  0  0  0  0  0  0  0  0
  -37.6224  -43.8468   24.1467 H   0  0  0  0  0  0  0  0  0  0  0  0
  -32.3727  -48.0301   18.5710 H   0  0  0  0  0  0  0  0  0  0  0  0
  -34.0058  -48.2259   17.9242 H   0  0  0  0  0  0  0  0  0  0  0  0
  -33.7103  -47.2260   19.4018 H   0  0  0  0  0  0  0  0  0  0  0  0
  -38.8631  -48.1311   21.1746 H   0  0  0  0  0  0  0  0  0  0  0  0
  -36.4025  -47.1613   23.5726 H   0  0  0  0  0  0  0  0  0  0  0  0
  -37.1131  -48.4642   22.6858 H   0  0  0  0  0  0  0  0  0  0  0  0
  1  3  2  0
  1  5  1  0
  2  4  2  0
  2  6  1  0
  3  9  1  0
  4 10  1  0
  5 11  2  0
  6 12  2  0
  7  9  2  0
  7 11  1  0
  8 10  2  0
  8 12  1  0
  9 10  1  0
 11 16  1  0
 12 24  1  0
 13 15  1  0
 13 20  1  0
 13 23  2  0
 14 20  1  0
 14 21  1  0
 14 22  2  0
 15 16  1  0
 16 17  1  6
 16 21  1  0
 18 20  1  0
 19 24  1  0
  1 25  1  0
  2 26  1  0
  3 27  1  0
  4 28  1  0
  5 29  1  0
  6 30  1  0
  7 31  1  0
  8 32  1  0
 15 33  1  0
 15 34  1  0
 17 35  1  0
 17 36  1  0
 17 37  1  0
 18 38  1  0
 18 39  1  0
 18 40  1  0
 19 41  1  0
 19 42  1  0
 19 43  1  0
 21 44  1  0
 22 45  1  0
 22 46  1  0
M  CHG  1  22   1
M  END
