lig_02
     RDKit          3D

 37 39  0  0  0  0  0  0  0  0999 V2000
  -38.0090  -45.6315   19.1393 C   0  0  0  0  0  0  0  0  0  0  0  0
  -39.9692  -45.1638   17.2217 C   0  0  0  0  0  0  0  0  0  0  0  0
  -35.2004  -46.0152   17.8190 C   0  0  0  0  0  0  0  0  0  0  0  0
  -35.7492  -44.0607   16.6787 C   0  0  0  0  0  0  0  0  0  0  0  0
  -33.6155  -44.8304   16.6899 C   0  0  0  0  0  0  0  0  0  0  0  0
  -37.6132  -45.2875   17.8281 C   0  0  0  0  0  0  0  0  0  0  0  0
  -36.2008  -45.1247   17.4552 C   0  0  0  0  0  0  0  0  0  0  0  0
  -39.3683  -45.7328   19.5198 C   0  0  0  0  0  0  0  0  0  0  0  0
  -38.6278  -45.0833   16.8841 C   0  0  0  0  0  0  0  0  0  0  0  0
  -40.3241  -45.4655   18.5293 C   0  0  0  0  0  0  0  0  0  0  0  0
  -37.8478  -46.5876   22.5205 C   0  0  0  0  0  0  0  0  0  0  0  0
  -39.9995  -44.7608   21.7798 C   0  0  0  0  0  0  0  0  0  0  0  0
  -38.7192  -44.0071   22.0925 C   0  0  0  0  0  0  0  0  0  0  0  0
  -39.7803  -46.0487   20.9633 C   0  0  1  0  0  0  0  0  0  0  0  0
  -41.0746  -46.8925   21.0561 C   0  0  0  0  0  0  0  0  0  0  0  0
  -33.9031  -45.8991   17.4539 N   0  0  0  0  0  0  0  0  0  0  0  0
  -34.4728  -43.8844   16.2757 N   0  0  0  0  0  0  0  0  0  0  0  0
  -38.7506  -46.9116   21.5963 N   0  0  0  0  0  0  0  0  0  0  0  0
  -37.0324  -47.5182   23.0029 N   0  0  0  0  0  4  0  0  0  0  0  0
  -38.3177  -44.8022   15.6093 F   0  0  0  0  0  0  0  0  0  0  0  0
  -41.6313  -45.4746   18.8190 F   0  0  0  0  0  0  0  0  0  0  0  0
  -37.6579  -44.9875   23.1728 S   0  0  0  0  0  0  0  0  0  0  0  0
  -37.2332  -45.7867   19.8872 H   0  0  0  0  0  0  0  0  0  0  0  0
  -40.7339  -44.9813   16.4745 H   0  0  0  0  0  0  0  0  0  0  0  0
  -35.4136  -46.8925   18.4228 H   0  0  0  0  0  0  0  0  0  0  0  0
  -36.4263  -43.2813   16.3387 H   0  0  0  0  0  0  0  0  0  0  0  0
  -32.5860  -44.7195   16.3733 H   0  0  0  0  0  0  0  0  0  0  0  0
  -40.5093  -44.9964   22.7248 H   0  0  0  0  0  0  0  0  0  0  0  0
  -40.6767  -44.0894   21.2351 H   0  0  0  0  0  0  0  0  0  0  0  0
  -38.1722  -43.7361   21.1858 H   0  0  0  0  0  0  0  0  0  0  0  0
  -38.9602  -43.0733   22.6095 H   0  0  0  0  0  0  0  0  0  0  0  0
  -41.2025  -47.2948   22.0687 H   0  0  0  0  0  0  0  0  0  0  0  0
  -41.0496  -47.7469   20.3704 H   0  0  0  0  0  0  0  0  0  0  0  0
  -41.9727  -46.3045   20.8405 H   0  0  0  0  0  0  0  0  0  0  0  0
  -38.7379  -47.8855   21.3012 H   0  0  0  0  0  0  0  0  0  0  0  0
  -37.0923  -48.4785   22.6827 H   0  0  0  0  0  0  0  0  0  0  0  0
  -36.3461  -47.2767   23.7080 H   0  0  0  0  0  0  0  0  0  0  0  0
  1  6  2  0
  1  8  1  0
  2  9  2  0
  2 10  1  0
  3  7  2  0
  3 16  1  0
  4  7  1  0
  4 17  2  0
  5 16  2  0
  5 17  1  0
  6  7  1  0
  6  9  1  0
  8 10  2  0
  8 14  1  0
  9 20  1  0
 10 21  1  0
 11 18  1  0
 11 19  2  0
 11 22  1  0
 12 13  1  0
 12 14  1  0
 13 22  1  0
 14 15  1  6
 14 18  1  0
  1 23  1  0
  2 24  1  0
  3 25  1  0
  4 26  1  0
  5 27  1  0
 12 28  1  0
 12 29  1  0
 13 30  1  0
 13 31  1  0
 15 32  1  0
 15 33  1  0
 15 34  1  0
 18 35  1  0
 19 36  1  0
 19 37  1  0
M  CHG  1  19   1
M  END
